version 3
run General-0-20250618-02:49:08-7944
attr configname General
attr datetime 20250618-02:49:08
attr datetimef 20250618-024908
attr experiment General
attr inifile omnetpp.ini
attr iterationvars ""
attr iterationvarsd ""
attr iterationvarsf ""
attr measurement ""
attr network WSN_EnergyEfficient
attr processid 7944
attr repetition 0
attr replication #0
attr resultdir results
attr runnumber 0
attr seedset 0
config image-path ../../inet4.5/images
config network WSN_EnergyEfficient
config sim-time-limit 1000s
config visualizer.enabled true
config radioMedium.displaySignals true
config record-eventlog true
config output-scalar-file results.sca
config output-vector-file results.vec
config **.scalar-recording true
config **.vector-recording true

par WSN_EnergyEfficient.visualizer.sceneVisualizer typename "\"inet.visualizer.canvas.scene.SceneCanvasVisualizer\""
par WSN_EnergyEfficient.visualizer.sceneVisualizer visualizationTargetModule "\"^.^\""
par WSN_EnergyEfficient.visualizer.sceneVisualizer visualizationSubjectModule "\"^.^\""
par WSN_EnergyEfficient.visualizer.sceneVisualizer tags "\"\""
par WSN_EnergyEfficient.visualizer.sceneVisualizer physicalEnvironmentModule "\"physicalEnvironment\""
par WSN_EnergyEfficient.visualizer.sceneVisualizer networkNodeVisualizerModule "\"^.networkNodeVisualizer\""
par WSN_EnergyEfficient.visualizer.sceneVisualizer axisLength "nan m"
attr mutable ""
attr unit m
par WSN_EnergyEfficient.visualizer.sceneVisualizer animationSpeed 0
par WSN_EnergyEfficient.visualizer.sceneVisualizer sceneMinX "nan m"
attr unit m
par WSN_EnergyEfficient.visualizer.sceneVisualizer sceneMinY "nan m"
attr unit m
par WSN_EnergyEfficient.visualizer.sceneVisualizer sceneMinZ "nan m"
attr unit m
par WSN_EnergyEfficient.visualizer.sceneVisualizer sceneMaxX "nan m"
attr unit m
par WSN_EnergyEfficient.visualizer.sceneVisualizer sceneMaxY "nan m"
attr unit m
par WSN_EnergyEfficient.visualizer.sceneVisualizer sceneMaxZ "nan m"
attr unit m
par WSN_EnergyEfficient.visualizer.sceneVisualizer zIndex 0
par WSN_EnergyEfficient.visualizer.sceneVisualizer viewAngle "\"x right y down z out\""
attr mutable ""
par WSN_EnergyEfficient.visualizer.sceneVisualizer viewScale "\"1 1\""
attr mutable ""
par WSN_EnergyEfficient.visualizer.sceneVisualizer viewTranslation "\"0 0\""
attr mutable ""
par WSN_EnergyEfficient.visualizer.sceneVisualizer descriptionFigure "\"\""
par WSN_EnergyEfficient.visualizer.physicalEnvironmentVisualizer typename "\"inet.visualizer.canvas.environment.PhysicalEnvironmentCanvasVisualizer\""
par WSN_EnergyEfficient.visualizer.physicalEnvironmentVisualizer visualizationTargetModule "\"^.^\""
par WSN_EnergyEfficient.visualizer.physicalEnvironmentVisualizer visualizationSubjectModule "\"^.^\""
par WSN_EnergyEfficient.visualizer.physicalEnvironmentVisualizer tags "\"\""
par WSN_EnergyEfficient.visualizer.physicalEnvironmentVisualizer physicalEnvironmentModule "\"physicalEnvironment\""
par WSN_EnergyEfficient.visualizer.physicalEnvironmentVisualizer displayObjects true
par WSN_EnergyEfficient.visualizer.physicalEnvironmentVisualizer zIndex 0
par WSN_EnergyEfficient.visualizer.networkNodeVisualizer typename "\"inet.visualizer.canvas.scene.NetworkNodeCanvasVisualizer\""
par WSN_EnergyEfficient.visualizer.networkNodeVisualizer visualizationTargetModule "\"^.^\""
par WSN_EnergyEfficient.visualizer.networkNodeVisualizer visualizationSubjectModule "\"^.^\""
par WSN_EnergyEfficient.visualizer.networkNodeVisualizer tags "\"\""
par WSN_EnergyEfficient.visualizer.networkNodeVisualizer nodeFilter "\"*\""
attr mutable ""
par WSN_EnergyEfficient.visualizer.networkNodeVisualizer annotationSpacing 4
par WSN_EnergyEfficient.visualizer.networkNodeVisualizer placementPenalty 10
par WSN_EnergyEfficient.visualizer.networkNodeVisualizer zIndex 0
par WSN_EnergyEfficient.visualizer.networkConnectionVisualizer typename "\"inet.visualizer.canvas.scene.NetworkConnectionCanvasVisualizer\""
par WSN_EnergyEfficient.visualizer.networkConnectionVisualizer visualizationTargetModule "\"^.^\""
par WSN_EnergyEfficient.visualizer.networkConnectionVisualizer visualizationSubjectModule "\"^.^\""
par WSN_EnergyEfficient.visualizer.networkConnectionVisualizer tags "\"\""
par WSN_EnergyEfficient.visualizer.networkConnectionVisualizer displayNetworkConnections true
par WSN_EnergyEfficient.visualizer.networkConnectionVisualizer nodeFilter "\"\""
attr mutable ""
par WSN_EnergyEfficient.visualizer.networkConnectionVisualizer lineColor "\"black\""
par WSN_EnergyEfficient.visualizer.networkConnectionVisualizer lineStyle "\"solid\""
par WSN_EnergyEfficient.visualizer.networkConnectionVisualizer lineWidth 1
par WSN_EnergyEfficient.visualizer.networkConnectionVisualizer zIndex 0
par WSN_EnergyEfficient.visualizer.mobilityVisualizer typename "\"inet.visualizer.canvas.mobility.MobilityCanvasVisualizer\""
par WSN_EnergyEfficient.visualizer.mobilityVisualizer visualizationTargetModule "\"^.^\""
par WSN_EnergyEfficient.visualizer.mobilityVisualizer visualizationSubjectModule "\"^.^\""
par WSN_EnergyEfficient.visualizer.mobilityVisualizer tags "\"\""
par WSN_EnergyEfficient.visualizer.mobilityVisualizer networkNodeVisualizerModule "\"^.networkNodeVisualizer\""
par WSN_EnergyEfficient.visualizer.mobilityVisualizer displayMobility true
par WSN_EnergyEfficient.visualizer.mobilityVisualizer animationSpeed 0
par WSN_EnergyEfficient.visualizer.mobilityVisualizer moduleFilter "\"**.mobility\""
attr mutable ""
par WSN_EnergyEfficient.visualizer.mobilityVisualizer displayPositions false
par WSN_EnergyEfficient.visualizer.mobilityVisualizer positionCircleRadius 4
par WSN_EnergyEfficient.visualizer.mobilityVisualizer positionCircleLineWidth 1
par WSN_EnergyEfficient.visualizer.mobilityVisualizer positionCircleLineColor "\"dark\""
par WSN_EnergyEfficient.visualizer.mobilityVisualizer positionCircleFillColor "\"dark\""
par WSN_EnergyEfficient.visualizer.mobilityVisualizer displayOrientations false
par WSN_EnergyEfficient.visualizer.mobilityVisualizer orientationPieRadius 32
par WSN_EnergyEfficient.visualizer.mobilityVisualizer orientationPieSize 0.2
par WSN_EnergyEfficient.visualizer.mobilityVisualizer orientationPieOpacity 0.25
par WSN_EnergyEfficient.visualizer.mobilityVisualizer orientationLineColor "\"black\""
par WSN_EnergyEfficient.visualizer.mobilityVisualizer orientationLineStyle "\"solid\""
par WSN_EnergyEfficient.visualizer.mobilityVisualizer orientationLineWidth 1
par WSN_EnergyEfficient.visualizer.mobilityVisualizer orientationFillColor "\"blue\""
par WSN_EnergyEfficient.visualizer.mobilityVisualizer displayVelocities false
par WSN_EnergyEfficient.visualizer.mobilityVisualizer velocityArrowScale 1
par WSN_EnergyEfficient.visualizer.mobilityVisualizer velocityLineColor "\"black\""
par WSN_EnergyEfficient.visualizer.mobilityVisualizer velocityLineStyle "\"solid\""
par WSN_EnergyEfficient.visualizer.mobilityVisualizer velocityLineWidth 1
par WSN_EnergyEfficient.visualizer.mobilityVisualizer displayMovementTrails false
par WSN_EnergyEfficient.visualizer.mobilityVisualizer movementTrailLineColor "\"dark\""
par WSN_EnergyEfficient.visualizer.mobilityVisualizer movementTrailLineStyle "\"solid\""
par WSN_EnergyEfficient.visualizer.mobilityVisualizer movementTrailLineWidth 1
par WSN_EnergyEfficient.visualizer.mobilityVisualizer trailLength 100
par WSN_EnergyEfficient.visualizer.mobilityVisualizer zIndex 0
par WSN_EnergyEfficient.visualizer.statisticVisualizer typename "\"inet.visualizer.canvas.common.StatisticCanvasVisualizer\""
par WSN_EnergyEfficient.visualizer.statisticVisualizer visualizationTargetModule "\"^.^\""
par WSN_EnergyEfficient.visualizer.statisticVisualizer visualizationSubjectModule "\"^.^\""
par WSN_EnergyEfficient.visualizer.statisticVisualizer tags "\"\""
par WSN_EnergyEfficient.visualizer.statisticVisualizer networkNodeVisualizerModule "\"^.networkNodeVisualizer\""
par WSN_EnergyEfficient.visualizer.statisticVisualizer displayStatistics true
par WSN_EnergyEfficient.visualizer.statisticVisualizer signalName "\"\""
par WSN_EnergyEfficient.visualizer.statisticVisualizer statisticName "\"\""
par WSN_EnergyEfficient.visualizer.statisticVisualizer statisticUnit "\"\""
par WSN_EnergyEfficient.visualizer.statisticVisualizer statisticExpression "\"\""
par WSN_EnergyEfficient.visualizer.statisticVisualizer sourceFilter "\"**\""
attr mutable ""
par WSN_EnergyEfficient.visualizer.statisticVisualizer format "\"%n: %v %u\""
attr mutable ""
par WSN_EnergyEfficient.visualizer.statisticVisualizer unit "\"\""
par WSN_EnergyEfficient.visualizer.statisticVisualizer font "\"<default>\""
par WSN_EnergyEfficient.visualizer.statisticVisualizer textColor "\"black\""
par WSN_EnergyEfficient.visualizer.statisticVisualizer backgroundColor "\"white\""
par WSN_EnergyEfficient.visualizer.statisticVisualizer opacity 1
par WSN_EnergyEfficient.visualizer.statisticVisualizer placementHint "\"top\""
par WSN_EnergyEfficient.visualizer.statisticVisualizer placementPriority 0
par WSN_EnergyEfficient.visualizer.statisticVisualizer zIndex 10
par WSN_EnergyEfficient.visualizer.statisticVisualizer propertyName "\"\""
par WSN_EnergyEfficient.visualizer.statisticVisualizer propertyIndex "\"\""
par WSN_EnergyEfficient.visualizer.infoVisualizer typename "\"inet.visualizer.canvas.common.InfoCanvasVisualizer\""
par WSN_EnergyEfficient.visualizer.infoVisualizer visualizationTargetModule "\"^.^\""
par WSN_EnergyEfficient.visualizer.infoVisualizer visualizationSubjectModule "\"^.^\""
par WSN_EnergyEfficient.visualizer.infoVisualizer tags "\"\""
par WSN_EnergyEfficient.visualizer.infoVisualizer networkNodeVisualizerModule "\"^.networkNodeVisualizer\""
par WSN_EnergyEfficient.visualizer.infoVisualizer displayInfos true
par WSN_EnergyEfficient.visualizer.infoVisualizer modules "\"\""
attr mutable ""
par WSN_EnergyEfficient.visualizer.infoVisualizer format "\"%t\""
attr mutable ""
par WSN_EnergyEfficient.visualizer.infoVisualizer font "\"<default>\""
par WSN_EnergyEfficient.visualizer.infoVisualizer textColor "\"black\""
par WSN_EnergyEfficient.visualizer.infoVisualizer backgroundColor "\"white\""
par WSN_EnergyEfficient.visualizer.infoVisualizer opacity 1
par WSN_EnergyEfficient.visualizer.infoVisualizer placementHint "\"top\""
par WSN_EnergyEfficient.visualizer.infoVisualizer placementPriority 0
par WSN_EnergyEfficient.visualizer.infoVisualizer zIndex 10
par WSN_EnergyEfficient.visualizer.energyStorageVisualizer typename "\"inet.visualizer.canvas.power.EnergyStorageCanvasVisualizer\""
par WSN_EnergyEfficient.visualizer.energyStorageVisualizer visualizationTargetModule "\"^.^\""
par WSN_EnergyEfficient.visualizer.energyStorageVisualizer visualizationSubjectModule "\"^.^\""
par WSN_EnergyEfficient.visualizer.energyStorageVisualizer tags "\"\""
par WSN_EnergyEfficient.visualizer.energyStorageVisualizer networkNodeVisualizerModule "\"^.networkNodeVisualizer\""
par WSN_EnergyEfficient.visualizer.energyStorageVisualizer displayEnergyStorages false
par WSN_EnergyEfficient.visualizer.energyStorageVisualizer energyStorageFilter "\"**\""
par WSN_EnergyEfficient.visualizer.energyStorageVisualizer color "\"green\""
par WSN_EnergyEfficient.visualizer.energyStorageVisualizer width 8
par WSN_EnergyEfficient.visualizer.energyStorageVisualizer height 24
par WSN_EnergyEfficient.visualizer.energyStorageVisualizer spacing 2
par WSN_EnergyEfficient.visualizer.energyStorageVisualizer placementHint "\"right\""
par WSN_EnergyEfficient.visualizer.energyStorageVisualizer placementPriority 0
par WSN_EnergyEfficient.visualizer.energyStorageVisualizer zIndex 10
par WSN_EnergyEfficient.visualizer.mediumVisualizer typename "\"inet.visualizer.canvas.physicallayer.MediumCanvasVisualizer\""
par WSN_EnergyEfficient.visualizer.mediumVisualizer visualizationTargetModule "\"^.^\""
par WSN_EnergyEfficient.visualizer.mediumVisualizer visualizationSubjectModule "\"^.^\""
par WSN_EnergyEfficient.visualizer.mediumVisualizer tags "\"\""
par WSN_EnergyEfficient.visualizer.mediumVisualizer mediumModule "\"radioMedium\""
par WSN_EnergyEfficient.visualizer.mediumVisualizer networkNodeVisualizerModule "\"^.networkNodeVisualizer\""
par WSN_EnergyEfficient.visualizer.mediumVisualizer nodeFilter "\"*\""
attr mutable ""
par WSN_EnergyEfficient.visualizer.mediumVisualizer interfaceFilter "\"*\""
attr mutable ""
par WSN_EnergyEfficient.visualizer.mediumVisualizer packetFilter "(omnetpp::cValueHolder)holder: \"*\""
attr mutable ""
par WSN_EnergyEfficient.visualizer.mediumVisualizer displaySignals false
par WSN_EnergyEfficient.visualizer.mediumVisualizer signalColor "\"dark\""
par WSN_EnergyEfficient.visualizer.mediumVisualizer signalPropagationAnimationSpeed "nan "
attr mutable ""
par WSN_EnergyEfficient.visualizer.mediumVisualizer signalPropagationAnimationTime 1s
attr unit s
par WSN_EnergyEfficient.visualizer.mediumVisualizer signalPropagationAdditionalTime 0s
attr unit s
par WSN_EnergyEfficient.visualizer.mediumVisualizer signalTransmissionAnimationSpeed "nan "
attr mutable ""
par WSN_EnergyEfficient.visualizer.mediumVisualizer signalTransmissionAnimationTime 1s
attr unit s
par WSN_EnergyEfficient.visualizer.mediumVisualizer signalAnimationSpeedChangeTimeMode "\"realTime\""
attr enum realTime,animationTime,simulationTime
par WSN_EnergyEfficient.visualizer.mediumVisualizer signalAnimationSpeedChangeTime 1s
attr unit s
par WSN_EnergyEfficient.visualizer.mediumVisualizer displaySignalDepartures false
par WSN_EnergyEfficient.visualizer.mediumVisualizer signalDepartureImage "\"misc/signal_departure.png\""
par WSN_EnergyEfficient.visualizer.mediumVisualizer signalDeparturePlacementHint "\"topCenter\""
par WSN_EnergyEfficient.visualizer.mediumVisualizer signalDeparturePlacementPriority 1
par WSN_EnergyEfficient.visualizer.mediumVisualizer displaySignalArrivals false
par WSN_EnergyEfficient.visualizer.mediumVisualizer signalArrivalImage "\"misc/signal_arrival.png\""
par WSN_EnergyEfficient.visualizer.mediumVisualizer signalArrivalPlacementHint "\"topCenter\""
par WSN_EnergyEfficient.visualizer.mediumVisualizer signalArrivalPlacementPriority -1
par WSN_EnergyEfficient.visualizer.mediumVisualizer displayCommunicationRanges false
par WSN_EnergyEfficient.visualizer.mediumVisualizer communicationRangeLineColor "\"blue\""
par WSN_EnergyEfficient.visualizer.mediumVisualizer communicationRangeLineStyle "\"solid\""
par WSN_EnergyEfficient.visualizer.mediumVisualizer communicationRangeLineWidth 1
par WSN_EnergyEfficient.visualizer.mediumVisualizer displayInterferenceRanges false
par WSN_EnergyEfficient.visualizer.mediumVisualizer interferenceRangeLineColor "\"gray\""
par WSN_EnergyEfficient.visualizer.mediumVisualizer interferenceRangeLineStyle "\"solid\""
par WSN_EnergyEfficient.visualizer.mediumVisualizer interferenceRangeLineWidth 1
par WSN_EnergyEfficient.visualizer.mediumVisualizer autoPowerAxis true
par WSN_EnergyEfficient.visualizer.mediumVisualizer signalMinPower "inf dBmW"
attr unit dBmW
par WSN_EnergyEfficient.visualizer.mediumVisualizer signalMaxPower 0dBmW
attr unit dBmW
par WSN_EnergyEfficient.visualizer.mediumVisualizer signalMinPowerDensity "inf dBmWpMHz"
attr unit dBmWpMHz
par WSN_EnergyEfficient.visualizer.mediumVisualizer signalMaxPowerDensity "-inf dBmWpMHz"
attr unit dBmWpMHz
par WSN_EnergyEfficient.visualizer.mediumVisualizer autoTimeAxis true
par WSN_EnergyEfficient.visualizer.mediumVisualizer signalMinTime 0s
attr unit s
par WSN_EnergyEfficient.visualizer.mediumVisualizer signalMaxTime 0s
attr unit s
par WSN_EnergyEfficient.visualizer.mediumVisualizer autoFrequencyAxis true
par WSN_EnergyEfficient.visualizer.mediumVisualizer signalMinFrequency "inf Hz"
attr unit Hz
par WSN_EnergyEfficient.visualizer.mediumVisualizer signalMaxFrequency "-inf Hz"
attr unit Hz
par WSN_EnergyEfficient.visualizer.mediumVisualizer displayMainPowerDensityMap false
par WSN_EnergyEfficient.visualizer.mediumVisualizer mainPowerDensityMapPixmapDensity 1
par WSN_EnergyEfficient.visualizer.mediumVisualizer mainPowerDensityMapMinX 0
par WSN_EnergyEfficient.visualizer.mediumVisualizer mainPowerDensityMapMaxX "nan "
par WSN_EnergyEfficient.visualizer.mediumVisualizer mainPowerDensityMapMinY 0
par WSN_EnergyEfficient.visualizer.mediumVisualizer mainPowerDensityMapMaxY "nan "
par WSN_EnergyEfficient.visualizer.mediumVisualizer mainPowerDensityMapZ 0
par WSN_EnergyEfficient.visualizer.mediumVisualizer mainPowerDensityMapFigureXTickCount 3
par WSN_EnergyEfficient.visualizer.mediumVisualizer mainPowerDensityMapFigureYTickCount 3
par WSN_EnergyEfficient.visualizer.mediumVisualizer displayPowerDensityMaps false
par WSN_EnergyEfficient.visualizer.mediumVisualizer powerDensityMapMode "\"auto\""
attr enum total,signal,auto
par WSN_EnergyEfficient.visualizer.mediumVisualizer powerDensityMapPixelMode "\"mean\""
attr enum sample,partition,mean
par WSN_EnergyEfficient.visualizer.mediumVisualizer powerDensityMapApproximationSize 10
par WSN_EnergyEfficient.visualizer.mediumVisualizer powerDensityMapCenterFrequency "nan Hz"
attr mutable ""
attr unit Hz
par WSN_EnergyEfficient.visualizer.mediumVisualizer powerDensityMapBandwidth 0Hz
attr mutable ""
attr unit Hz
par WSN_EnergyEfficient.visualizer.mediumVisualizer powerDensityMapFigureWidth 200
par WSN_EnergyEfficient.visualizer.mediumVisualizer powerDensityMapFigureHeight 120
par WSN_EnergyEfficient.visualizer.mediumVisualizer powerDensityMapPixmapWidth 200
par WSN_EnergyEfficient.visualizer.mediumVisualizer powerDensityMapPixmapHeight 120
par WSN_EnergyEfficient.visualizer.mediumVisualizer powerDensityMapZ 0
par WSN_EnergyEfficient.visualizer.mediumVisualizer powerDensityMapFigureXTickCount 3
par WSN_EnergyEfficient.visualizer.mediumVisualizer powerDensityMapFigureYTickCount 3
par WSN_EnergyEfficient.visualizer.mediumVisualizer displaySpectrums false
par WSN_EnergyEfficient.visualizer.mediumVisualizer spectrumMode "\"auto\""
attr enum total,signal,auto
par WSN_EnergyEfficient.visualizer.mediumVisualizer spectrumFigureWidth 200
par WSN_EnergyEfficient.visualizer.mediumVisualizer spectrumFigureHeight 120
par WSN_EnergyEfficient.visualizer.mediumVisualizer spectrumFigureXTickCount 3
par WSN_EnergyEfficient.visualizer.mediumVisualizer spectrumFigureYTickCount 5
par WSN_EnergyEfficient.visualizer.mediumVisualizer spectrumFigureInterpolationSize 5
par WSN_EnergyEfficient.visualizer.mediumVisualizer spectrumPlacementHint "\"bottomCenter\""
par WSN_EnergyEfficient.visualizer.mediumVisualizer spectrumPlacementPriority -1
par WSN_EnergyEfficient.visualizer.mediumVisualizer displaySpectrograms false
par WSN_EnergyEfficient.visualizer.mediumVisualizer spectrogramMode "\"auto\""
attr enum total,signal,auto
par WSN_EnergyEfficient.visualizer.mediumVisualizer spectrogramPixelMode "\"mean\""
attr enum sample,partition,mean
par WSN_EnergyEfficient.visualizer.mediumVisualizer spectrogramFigureWidth 200
par WSN_EnergyEfficient.visualizer.mediumVisualizer spectrogramFigureHeight 120
par WSN_EnergyEfficient.visualizer.mediumVisualizer spectrogramPixmapWidth 200
par WSN_EnergyEfficient.visualizer.mediumVisualizer spectrogramPixmapHeight 120
par WSN_EnergyEfficient.visualizer.mediumVisualizer spectrogramFigureXTickCount 3
par WSN_EnergyEfficient.visualizer.mediumVisualizer spectrogramFigureYTickCount 5
par WSN_EnergyEfficient.visualizer.mediumVisualizer spectrogramPlacementHint "\"bottomCenter\""
par WSN_EnergyEfficient.visualizer.mediumVisualizer spectrogramPlacementPriority -1
par WSN_EnergyEfficient.visualizer.mediumVisualizer zIndex 0
par WSN_EnergyEfficient.visualizer.mediumVisualizer signalShape "\"ring\""
attr enum ring,sphere
par WSN_EnergyEfficient.visualizer.mediumVisualizer signalOpacity 0.5
par WSN_EnergyEfficient.visualizer.mediumVisualizer signalRingCount 20
par WSN_EnergyEfficient.visualizer.mediumVisualizer signalRingSize 50m
attr unit m
par WSN_EnergyEfficient.visualizer.mediumVisualizer signalFadingDistance 50m
attr unit m
par WSN_EnergyEfficient.visualizer.mediumVisualizer signalFadingFactor 1.2
par WSN_EnergyEfficient.visualizer.mediumVisualizer signalWaveCount 20
par WSN_EnergyEfficient.visualizer.mediumVisualizer signalWaveLength 50m
attr unit m
par WSN_EnergyEfficient.visualizer.mediumVisualizer signalWaveWidth 10m
attr unit m
par WSN_EnergyEfficient.visualizer.mediumVisualizer signalWaveFadingAnimationSpeedFactor 1
par WSN_EnergyEfficient.visualizer.mediumVisualizer displayCommunicationHeat false
par WSN_EnergyEfficient.visualizer.obstacleLossVisualizer typename "\"inet.visualizer.canvas.physicallayer.TracingObstacleLossCanvasVisualizer\""
par WSN_EnergyEfficient.visualizer.obstacleLossVisualizer visualizationTargetModule "\"^.^\""
par WSN_EnergyEfficient.visualizer.obstacleLossVisualizer visualizationSubjectModule "\"^.^\""
par WSN_EnergyEfficient.visualizer.obstacleLossVisualizer tags "\"\""
par WSN_EnergyEfficient.visualizer.obstacleLossVisualizer displayIntersections false
par WSN_EnergyEfficient.visualizer.obstacleLossVisualizer intersectionLineColor "\"red\""
par WSN_EnergyEfficient.visualizer.obstacleLossVisualizer intersectionLineStyle "\"solid\""
par WSN_EnergyEfficient.visualizer.obstacleLossVisualizer intersectionLineWidth 1
par WSN_EnergyEfficient.visualizer.obstacleLossVisualizer displayFaceNormalVectors false
par WSN_EnergyEfficient.visualizer.obstacleLossVisualizer faceNormalLineColor "\"grey\""
par WSN_EnergyEfficient.visualizer.obstacleLossVisualizer faceNormalLineStyle "\"solid\""
par WSN_EnergyEfficient.visualizer.obstacleLossVisualizer faceNormalLineWidth 1
par WSN_EnergyEfficient.visualizer.obstacleLossVisualizer fadeOutMode "\"realTime\""
attr enum realTime,animationTime,simulationTime
par WSN_EnergyEfficient.visualizer.obstacleLossVisualizer fadeOutTime 1s
attr unit s
par WSN_EnergyEfficient.visualizer.obstacleLossVisualizer fadeOutAnimationSpeed 0
par WSN_EnergyEfficient.visualizer.obstacleLossVisualizer zIndex 0
par WSN_EnergyEfficient.visualizer.packetDropVisualizer typename "\"inet.visualizer.canvas.common.PacketDropCanvasVisualizer\""
par WSN_EnergyEfficient.visualizer.packetDropVisualizer visualizationTargetModule "\"^.^\""
par WSN_EnergyEfficient.visualizer.packetDropVisualizer visualizationSubjectModule "\"^.^\""
par WSN_EnergyEfficient.visualizer.packetDropVisualizer tags "\"\""
par WSN_EnergyEfficient.visualizer.packetDropVisualizer displayPacketDrops false
par WSN_EnergyEfficient.visualizer.packetDropVisualizer nodeFilter "\"*\""
attr mutable ""
par WSN_EnergyEfficient.visualizer.packetDropVisualizer interfaceFilter "\"*\""
attr mutable ""
par WSN_EnergyEfficient.visualizer.packetDropVisualizer packetFilter "(omnetpp::cValueHolder)holder: \"*\""
attr mutable ""
par WSN_EnergyEfficient.visualizer.packetDropVisualizer detailsFilter "\"*\""
attr mutable ""
par WSN_EnergyEfficient.visualizer.packetDropVisualizer icon "\"msg/packet_s\""
par WSN_EnergyEfficient.visualizer.packetDropVisualizer iconTintAmount 1
par WSN_EnergyEfficient.visualizer.packetDropVisualizer iconTintColor "\"dark\""
par WSN_EnergyEfficient.visualizer.packetDropVisualizer labelFormat "\"%n\""
attr mutable ""
par WSN_EnergyEfficient.visualizer.packetDropVisualizer labelFont "\"<default>\""
par WSN_EnergyEfficient.visualizer.packetDropVisualizer labelColor "\"black\""
par WSN_EnergyEfficient.visualizer.packetDropVisualizer fadeOutMode "\"realTime\""
attr enum realTime,animationTime,simulationTime
par WSN_EnergyEfficient.visualizer.packetDropVisualizer fadeOutTime 1s
attr unit s
par WSN_EnergyEfficient.visualizer.packetDropVisualizer fadeOutAnimationSpeed 0
par WSN_EnergyEfficient.visualizer.packetDropVisualizer zIndex 10
par WSN_EnergyEfficient.visualizer.packetDropVisualizer dx 32
par WSN_EnergyEfficient.visualizer.packetDropVisualizer dy 64
par WSN_EnergyEfficient.visualizer.packetFlowVisualizer typename "\"inet.visualizer.canvas.flow.PacketFlowCanvasVisualizer\""
par WSN_EnergyEfficient.visualizer.packetFlowVisualizer visualizationTargetModule "\"^.^\""
par WSN_EnergyEfficient.visualizer.packetFlowVisualizer visualizationSubjectModule "\"^.^\""
par WSN_EnergyEfficient.visualizer.packetFlowVisualizer tags "\"\""
par WSN_EnergyEfficient.visualizer.packetFlowVisualizer displayRoutes false
par WSN_EnergyEfficient.visualizer.packetFlowVisualizer startPathSignal "\"packetFlowStarted\""
par WSN_EnergyEfficient.visualizer.packetFlowVisualizer extendPathSignal "\"packetReceivedFromLower\""
par WSN_EnergyEfficient.visualizer.packetFlowVisualizer endPathSignal "\"packetFlowEnded\""
par WSN_EnergyEfficient.visualizer.packetFlowVisualizer nodeFilter "\"*\""
attr mutable ""
par WSN_EnergyEfficient.visualizer.packetFlowVisualizer packetFilter "(omnetpp::cValueHolder)holder: \"*\""
attr mutable ""
par WSN_EnergyEfficient.visualizer.packetFlowVisualizer lineColor "\"dark\""
par WSN_EnergyEfficient.visualizer.packetFlowVisualizer lineStyle "\"dashed\""
par WSN_EnergyEfficient.visualizer.packetFlowVisualizer lineWidth 3
par WSN_EnergyEfficient.visualizer.packetFlowVisualizer lineSmooth false
par WSN_EnergyEfficient.visualizer.packetFlowVisualizer lineShift 16
par WSN_EnergyEfficient.visualizer.packetFlowVisualizer lineShiftMode "\"normal\""
par WSN_EnergyEfficient.visualizer.packetFlowVisualizer lineContactSpacing 3
par WSN_EnergyEfficient.visualizer.packetFlowVisualizer lineContactMode "\"rectangular\""
attr enum circular,rectangular
par WSN_EnergyEfficient.visualizer.packetFlowVisualizer labelFormat "\"%L %p pk (%l)\""
par WSN_EnergyEfficient.visualizer.packetFlowVisualizer labelFont "\"<default>, 8px\""
par WSN_EnergyEfficient.visualizer.packetFlowVisualizer labelColor "\"\""
par WSN_EnergyEfficient.visualizer.packetFlowVisualizer fadeOutMode "\"realTime\""
attr enum realTime,animationTime,simulationTime
par WSN_EnergyEfficient.visualizer.packetFlowVisualizer fadeOutTime 0s
attr unit s
par WSN_EnergyEfficient.visualizer.packetFlowVisualizer fadeOutAnimationSpeed 0
par WSN_EnergyEfficient.visualizer.packetFlowVisualizer zIndex 4
par WSN_EnergyEfficient.visualizer.queueVisualizer typename "\"inet.visualizer.canvas.common.QueueCanvasVisualizer\""
par WSN_EnergyEfficient.visualizer.queueVisualizer visualizationTargetModule "\"^.^\""
par WSN_EnergyEfficient.visualizer.queueVisualizer visualizationSubjectModule "\"^.^\""
par WSN_EnergyEfficient.visualizer.queueVisualizer tags "\"\""
par WSN_EnergyEfficient.visualizer.queueVisualizer networkNodeVisualizerModule "\"^.networkNodeVisualizer\""
par WSN_EnergyEfficient.visualizer.queueVisualizer displayQueues false
par WSN_EnergyEfficient.visualizer.queueVisualizer queueFilter "\"**\""
par WSN_EnergyEfficient.visualizer.queueVisualizer color "\"blue\""
par WSN_EnergyEfficient.visualizer.queueVisualizer width 8
par WSN_EnergyEfficient.visualizer.queueVisualizer height 24
par WSN_EnergyEfficient.visualizer.queueVisualizer spacing 2
par WSN_EnergyEfficient.visualizer.queueVisualizer placementHint "\"right\""
par WSN_EnergyEfficient.visualizer.queueVisualizer placementPriority 0
par WSN_EnergyEfficient.visualizer.queueVisualizer zIndex 10
par WSN_EnergyEfficient.visualizer.gateScheduleVisualizer typename "\"inet.visualizer.canvas.common.GateScheduleCanvasVisualizer\""
par WSN_EnergyEfficient.visualizer.gateScheduleVisualizer visualizationTargetModule "\"^.^\""
par WSN_EnergyEfficient.visualizer.gateScheduleVisualizer visualizationSubjectModule "\"^.^\""
par WSN_EnergyEfficient.visualizer.gateScheduleVisualizer tags "\"\""
par WSN_EnergyEfficient.visualizer.gateScheduleVisualizer networkNodeVisualizerModule "\"^.networkNodeVisualizer\""
par WSN_EnergyEfficient.visualizer.gateScheduleVisualizer displayGateSchedules false
par WSN_EnergyEfficient.visualizer.gateScheduleVisualizer labelFormat "\"%i %D\""
par WSN_EnergyEfficient.visualizer.gateScheduleVisualizer gateFilter "\"**\""
par WSN_EnergyEfficient.visualizer.gateScheduleVisualizer width 100
par WSN_EnergyEfficient.visualizer.gateScheduleVisualizer height 8
par WSN_EnergyEfficient.visualizer.gateScheduleVisualizer spacing 2
par WSN_EnergyEfficient.visualizer.gateScheduleVisualizer placementHint "\"right\""
par WSN_EnergyEfficient.visualizer.gateScheduleVisualizer placementPriority 0
par WSN_EnergyEfficient.visualizer.gateScheduleVisualizer displayDuration 0s
attr mutable ""
attr unit s
par WSN_EnergyEfficient.visualizer.gateScheduleVisualizer currentTimePosition 50
par WSN_EnergyEfficient.visualizer.gateScheduleVisualizer zIndex 10
par WSN_EnergyEfficient.visualizer.radioVisualizer typename "\"inet.visualizer.canvas.physicallayer.RadioCanvasVisualizer\""
par WSN_EnergyEfficient.visualizer.radioVisualizer visualizationTargetModule "\"^.^\""
par WSN_EnergyEfficient.visualizer.radioVisualizer visualizationSubjectModule "\"^.^\""
par WSN_EnergyEfficient.visualizer.radioVisualizer tags "\"\""
par WSN_EnergyEfficient.visualizer.radioVisualizer networkNodeVisualizerModule "\"^.networkNodeVisualizer\""
par WSN_EnergyEfficient.visualizer.radioVisualizer displayRadios false
par WSN_EnergyEfficient.visualizer.radioVisualizer displayRadioMode true
par WSN_EnergyEfficient.visualizer.radioVisualizer displayReceptionState true
par WSN_EnergyEfficient.visualizer.radioVisualizer displayTransmissionState true
par WSN_EnergyEfficient.visualizer.radioVisualizer displayAntennaLobes false
par WSN_EnergyEfficient.visualizer.radioVisualizer radioFilter "\"**\""
attr mutable ""
par WSN_EnergyEfficient.visualizer.radioVisualizer radioModeImages "\"block/process_vs block/timer_vs block/wrx_vs block/wtx_vs block/wrxtx_vs block/cogwheel_vs\""
par WSN_EnergyEfficient.visualizer.radioVisualizer receptionStateImages "\"- - misc/receiving misc/receiving\""
par WSN_EnergyEfficient.visualizer.radioVisualizer transmissionStateImages "\"- - misc/transmitting\""
par WSN_EnergyEfficient.visualizer.radioVisualizer width 16
par WSN_EnergyEfficient.visualizer.radioVisualizer height 16
par WSN_EnergyEfficient.visualizer.radioVisualizer placementHint "\"bottomRight\""
par WSN_EnergyEfficient.visualizer.radioVisualizer placementPriority 0
par WSN_EnergyEfficient.visualizer.radioVisualizer antennaLobeNormalize false
par WSN_EnergyEfficient.visualizer.radioVisualizer antennaLobeRelativeLabels false
par WSN_EnergyEfficient.visualizer.radioVisualizer antennaLobePlaneGlobal true
par WSN_EnergyEfficient.visualizer.radioVisualizer antennaLobePlane "\"view\""
attr enum view,xy,xz,yz
par WSN_EnergyEfficient.visualizer.radioVisualizer antennaLobeMode "\"logarithmic\""
attr enum logarithmic,linear
par WSN_EnergyEfficient.visualizer.radioVisualizer antennaLobeLogarithmicBase 10
par WSN_EnergyEfficient.visualizer.radioVisualizer antennaLobeLogarithmicScale 100
par WSN_EnergyEfficient.visualizer.radioVisualizer antennaLobeRadius 100
par WSN_EnergyEfficient.visualizer.radioVisualizer antennaLobeStep 10deg
attr unit deg
par WSN_EnergyEfficient.visualizer.radioVisualizer antennaLobeOpacity 0.25
par WSN_EnergyEfficient.visualizer.radioVisualizer antennaLobeLineSmooth true
par WSN_EnergyEfficient.visualizer.radioVisualizer antennaLobeLineColor "\"black\""
par WSN_EnergyEfficient.visualizer.radioVisualizer antennaLobeLineStyle "\"solid\""
par WSN_EnergyEfficient.visualizer.radioVisualizer antennaLobeLineWidth 1
par WSN_EnergyEfficient.visualizer.radioVisualizer antennaLobeFillColor "\"white\""
par WSN_EnergyEfficient.visualizer.radioVisualizer zIndex 10
par WSN_EnergyEfficient.visualizer.physicalLinkVisualizer typename "\"inet.visualizer.canvas.physicallayer.PhysicalLinkCanvasVisualizer\""
par WSN_EnergyEfficient.visualizer.physicalLinkVisualizer visualizationTargetModule "\"^.^\""
par WSN_EnergyEfficient.visualizer.physicalLinkVisualizer visualizationSubjectModule "\"^.^\""
par WSN_EnergyEfficient.visualizer.physicalLinkVisualizer tags "\"\""
par WSN_EnergyEfficient.visualizer.physicalLinkVisualizer displayLinks false
par WSN_EnergyEfficient.visualizer.physicalLinkVisualizer activityLevel "\"service\""
attr enum service,peer,protocol
par WSN_EnergyEfficient.visualizer.physicalLinkVisualizer nodeFilter "\"*\""
attr mutable ""
par WSN_EnergyEfficient.visualizer.physicalLinkVisualizer interfaceFilter "\"*\""
attr mutable ""
par WSN_EnergyEfficient.visualizer.physicalLinkVisualizer packetFilter "(omnetpp::cValueHolder)holder: \"*\""
attr mutable ""
par WSN_EnergyEfficient.visualizer.physicalLinkVisualizer lineColor "\"olive\""
par WSN_EnergyEfficient.visualizer.physicalLinkVisualizer lineStyle "\"dotted\""
par WSN_EnergyEfficient.visualizer.physicalLinkVisualizer lineWidth 3
par WSN_EnergyEfficient.visualizer.physicalLinkVisualizer lineShift 16
par WSN_EnergyEfficient.visualizer.physicalLinkVisualizer lineShiftMode "\"normal\""
par WSN_EnergyEfficient.visualizer.physicalLinkVisualizer lineContactSpacing 3
par WSN_EnergyEfficient.visualizer.physicalLinkVisualizer lineContactMode "\"rectangular\""
attr enum circular,rectangular
par WSN_EnergyEfficient.visualizer.physicalLinkVisualizer labelFormat "\"%n\""
par WSN_EnergyEfficient.visualizer.physicalLinkVisualizer labelFont "\"<default>, 8px\""
par WSN_EnergyEfficient.visualizer.physicalLinkVisualizer labelColor "\"olive\""
par WSN_EnergyEfficient.visualizer.physicalLinkVisualizer fadeOutMode "\"realTime\""
attr enum realTime,animationTime,simulationTime
par WSN_EnergyEfficient.visualizer.physicalLinkVisualizer fadeOutTime 1s
attr unit s
par WSN_EnergyEfficient.visualizer.physicalLinkVisualizer fadeOutAnimationSpeed 0
par WSN_EnergyEfficient.visualizer.physicalLinkVisualizer holdAnimationTime 0s
attr unit s
par WSN_EnergyEfficient.visualizer.physicalLinkVisualizer zIndex 1
par WSN_EnergyEfficient.visualizer.interfaceTableVisualizer typename "\"inet.visualizer.canvas.linklayer.InterfaceTableCanvasVisualizer\""
par WSN_EnergyEfficient.visualizer.interfaceTableVisualizer visualizationTargetModule "\"^.^\""
par WSN_EnergyEfficient.visualizer.interfaceTableVisualizer visualizationSubjectModule "\"^.^\""
par WSN_EnergyEfficient.visualizer.interfaceTableVisualizer tags "\"\""
par WSN_EnergyEfficient.visualizer.interfaceTableVisualizer networkNodeVisualizerModule "\"^.networkNodeVisualizer\""
par WSN_EnergyEfficient.visualizer.interfaceTableVisualizer displayInterfaceTables false
par WSN_EnergyEfficient.visualizer.interfaceTableVisualizer displayWiredInterfacesAtConnections true
par WSN_EnergyEfficient.visualizer.interfaceTableVisualizer displayBackground false
par WSN_EnergyEfficient.visualizer.interfaceTableVisualizer nodeFilter "\"*\""
attr mutable ""
par WSN_EnergyEfficient.visualizer.interfaceTableVisualizer interfaceFilter "\"not(lo*)\""
attr mutable ""
par WSN_EnergyEfficient.visualizer.interfaceTableVisualizer format "\"%N %\\\\%a%/%l\""
attr mutable ""
par WSN_EnergyEfficient.visualizer.interfaceTableVisualizer placementHint "\"top\""
par WSN_EnergyEfficient.visualizer.interfaceTableVisualizer placementPriority 0
par WSN_EnergyEfficient.visualizer.interfaceTableVisualizer font "\"<default>\""
par WSN_EnergyEfficient.visualizer.interfaceTableVisualizer textColor "\"#005030\""
par WSN_EnergyEfficient.visualizer.interfaceTableVisualizer backgroundColor "\"white\""
par WSN_EnergyEfficient.visualizer.interfaceTableVisualizer opacity 1
par WSN_EnergyEfficient.visualizer.interfaceTableVisualizer zIndex 10
par WSN_EnergyEfficient.visualizer.dataLinkVisualizer typename "\"inet.visualizer.canvas.linklayer.DataLinkCanvasVisualizer\""
par WSN_EnergyEfficient.visualizer.dataLinkVisualizer visualizationTargetModule "\"^.^\""
par WSN_EnergyEfficient.visualizer.dataLinkVisualizer visualizationSubjectModule "\"^.^\""
par WSN_EnergyEfficient.visualizer.dataLinkVisualizer tags "\"\""
par WSN_EnergyEfficient.visualizer.dataLinkVisualizer displayLinks false
par WSN_EnergyEfficient.visualizer.dataLinkVisualizer activityLevel "\"service\""
attr enum service,peer,protocol
par WSN_EnergyEfficient.visualizer.dataLinkVisualizer nodeFilter "\"*\""
attr mutable ""
par WSN_EnergyEfficient.visualizer.dataLinkVisualizer interfaceFilter "\"*\""
attr mutable ""
par WSN_EnergyEfficient.visualizer.dataLinkVisualizer packetFilter "(omnetpp::cValueHolder)holder: \"*\""
attr mutable ""
par WSN_EnergyEfficient.visualizer.dataLinkVisualizer lineColor "\"darkcyan\""
par WSN_EnergyEfficient.visualizer.dataLinkVisualizer lineStyle "\"solid\""
par WSN_EnergyEfficient.visualizer.dataLinkVisualizer lineWidth 3
par WSN_EnergyEfficient.visualizer.dataLinkVisualizer lineShift 16
par WSN_EnergyEfficient.visualizer.dataLinkVisualizer lineShiftMode "\"normal\""
par WSN_EnergyEfficient.visualizer.dataLinkVisualizer lineContactSpacing 3
par WSN_EnergyEfficient.visualizer.dataLinkVisualizer lineContactMode "\"rectangular\""
attr enum circular,rectangular
par WSN_EnergyEfficient.visualizer.dataLinkVisualizer labelFormat "\"%n\""
par WSN_EnergyEfficient.visualizer.dataLinkVisualizer labelFont "\"<default>, 8px\""
par WSN_EnergyEfficient.visualizer.dataLinkVisualizer labelColor "\"darkcyan\""
par WSN_EnergyEfficient.visualizer.dataLinkVisualizer fadeOutMode "\"realTime\""
attr enum realTime,animationTime,simulationTime
par WSN_EnergyEfficient.visualizer.dataLinkVisualizer fadeOutTime 1s
attr unit s
par WSN_EnergyEfficient.visualizer.dataLinkVisualizer fadeOutAnimationSpeed 0
par WSN_EnergyEfficient.visualizer.dataLinkVisualizer holdAnimationTime 0s
attr unit s
par WSN_EnergyEfficient.visualizer.dataLinkVisualizer zIndex 2
par WSN_EnergyEfficient.visualizer.linkBreakVisualizer typename "\"inet.visualizer.canvas.linklayer.LinkBreakCanvasVisualizer\""
par WSN_EnergyEfficient.visualizer.linkBreakVisualizer visualizationTargetModule "\"^.^\""
par WSN_EnergyEfficient.visualizer.linkBreakVisualizer visualizationSubjectModule "\"^.^\""
par WSN_EnergyEfficient.visualizer.linkBreakVisualizer tags "\"\""
par WSN_EnergyEfficient.visualizer.linkBreakVisualizer displayLinkBreaks false
par WSN_EnergyEfficient.visualizer.linkBreakVisualizer nodeFilter "\"*\""
attr mutable ""
par WSN_EnergyEfficient.visualizer.linkBreakVisualizer interfaceFilter "\"*\""
attr mutable ""
par WSN_EnergyEfficient.visualizer.linkBreakVisualizer packetFilter "(omnetpp::cValueHolder)holder: \"*\""
attr mutable ""
par WSN_EnergyEfficient.visualizer.linkBreakVisualizer icon "\"status/stop\""
par WSN_EnergyEfficient.visualizer.linkBreakVisualizer iconTintAmount 0
par WSN_EnergyEfficient.visualizer.linkBreakVisualizer iconTintColor "\"\""
par WSN_EnergyEfficient.visualizer.linkBreakVisualizer fadeOutMode "\"realTime\""
attr enum realTime,animationTime,simulationTime
par WSN_EnergyEfficient.visualizer.linkBreakVisualizer fadeOutTime 1s
attr unit s
par WSN_EnergyEfficient.visualizer.linkBreakVisualizer fadeOutAnimationSpeed 0
par WSN_EnergyEfficient.visualizer.linkBreakVisualizer zIndex 2
par WSN_EnergyEfficient.visualizer.ieee80211Visualizer typename "\"inet.visualizer.canvas.linklayer.Ieee80211CanvasVisualizer\""
par WSN_EnergyEfficient.visualizer.ieee80211Visualizer visualizationTargetModule "\"^.^\""
par WSN_EnergyEfficient.visualizer.ieee80211Visualizer visualizationSubjectModule "\"^.^\""
par WSN_EnergyEfficient.visualizer.ieee80211Visualizer tags "\"\""
par WSN_EnergyEfficient.visualizer.ieee80211Visualizer networkNodeVisualizerModule "\"^.networkNodeVisualizer\""
par WSN_EnergyEfficient.visualizer.ieee80211Visualizer displayAssociations false
par WSN_EnergyEfficient.visualizer.ieee80211Visualizer nodeFilter "\"*\""
attr mutable ""
par WSN_EnergyEfficient.visualizer.ieee80211Visualizer interfaceFilter "\"*\""
attr mutable ""
par WSN_EnergyEfficient.visualizer.ieee80211Visualizer minPower -85dBm
attr unit dBm
par WSN_EnergyEfficient.visualizer.ieee80211Visualizer maxPower -50dBm
attr unit dBm
par WSN_EnergyEfficient.visualizer.ieee80211Visualizer icons "\"misc/signal_power_0 misc/signal_power_1 misc/signal_power_2 misc/signal_power_3\""
par WSN_EnergyEfficient.visualizer.ieee80211Visualizer iconColor "\"dark\""
par WSN_EnergyEfficient.visualizer.ieee80211Visualizer labelFont "\"<default>\""
par WSN_EnergyEfficient.visualizer.ieee80211Visualizer labelColor "\"black\""
par WSN_EnergyEfficient.visualizer.ieee80211Visualizer placementHint "\"top\""
par WSN_EnergyEfficient.visualizer.ieee80211Visualizer placementPriority 0
par WSN_EnergyEfficient.visualizer.ieee80211Visualizer zIndex 2
par WSN_EnergyEfficient.visualizer.networkRouteVisualizer typename "\"inet.visualizer.canvas.networklayer.NetworkRouteCanvasVisualizer\""
par WSN_EnergyEfficient.visualizer.networkRouteVisualizer visualizationTargetModule "\"^.^\""
par WSN_EnergyEfficient.visualizer.networkRouteVisualizer visualizationSubjectModule "\"^.^\""
par WSN_EnergyEfficient.visualizer.networkRouteVisualizer tags "\"\""
par WSN_EnergyEfficient.visualizer.networkRouteVisualizer displayRoutes false
par WSN_EnergyEfficient.visualizer.networkRouteVisualizer startPathSignal "\"packetReceivedFromUpper\""
par WSN_EnergyEfficient.visualizer.networkRouteVisualizer extendPathSignal "\"packetReceivedFromLower\""
par WSN_EnergyEfficient.visualizer.networkRouteVisualizer endPathSignal "\"packetSentToUpper\""
par WSN_EnergyEfficient.visualizer.networkRouteVisualizer nodeFilter "\"*\""
attr mutable ""
par WSN_EnergyEfficient.visualizer.networkRouteVisualizer packetFilter "(omnetpp::cValueHolder)holder: \"*\""
attr mutable ""
par WSN_EnergyEfficient.visualizer.networkRouteVisualizer lineColor "\"dark\""
par WSN_EnergyEfficient.visualizer.networkRouteVisualizer lineStyle "\"solid\""
par WSN_EnergyEfficient.visualizer.networkRouteVisualizer lineWidth 3
par WSN_EnergyEfficient.visualizer.networkRouteVisualizer lineSmooth false
par WSN_EnergyEfficient.visualizer.networkRouteVisualizer lineShift 16
par WSN_EnergyEfficient.visualizer.networkRouteVisualizer lineShiftMode "\"normal\""
par WSN_EnergyEfficient.visualizer.networkRouteVisualizer lineContactSpacing 3
par WSN_EnergyEfficient.visualizer.networkRouteVisualizer lineContactMode "\"rectangular\""
attr enum circular,rectangular
par WSN_EnergyEfficient.visualizer.networkRouteVisualizer labelFormat "\"%n\""
par WSN_EnergyEfficient.visualizer.networkRouteVisualizer labelFont "\"<default>, 8px\""
par WSN_EnergyEfficient.visualizer.networkRouteVisualizer labelColor "\"\""
par WSN_EnergyEfficient.visualizer.networkRouteVisualizer fadeOutMode "\"realTime\""
attr enum realTime,animationTime,simulationTime
par WSN_EnergyEfficient.visualizer.networkRouteVisualizer fadeOutTime 1s
attr unit s
par WSN_EnergyEfficient.visualizer.networkRouteVisualizer fadeOutAnimationSpeed 0
par WSN_EnergyEfficient.visualizer.networkRouteVisualizer zIndex 3
par WSN_EnergyEfficient.visualizer.routingTableVisualizer typename "\"inet.visualizer.canvas.networklayer.RoutingTableCanvasVisualizer\""
par WSN_EnergyEfficient.visualizer.routingTableVisualizer visualizationTargetModule "\"^.^\""
par WSN_EnergyEfficient.visualizer.routingTableVisualizer visualizationSubjectModule "\"^.^\""
par WSN_EnergyEfficient.visualizer.routingTableVisualizer tags "\"\""
par WSN_EnergyEfficient.visualizer.routingTableVisualizer displayRoutingTables false
par WSN_EnergyEfficient.visualizer.routingTableVisualizer displayRoutesIndividually true
par WSN_EnergyEfficient.visualizer.routingTableVisualizer displayLabels true
par WSN_EnergyEfficient.visualizer.routingTableVisualizer destinationFilter "\"*\""
attr mutable ""
par WSN_EnergyEfficient.visualizer.routingTableVisualizer nodeFilter "\"*\""
attr mutable ""
par WSN_EnergyEfficient.visualizer.routingTableVisualizer lineColor "\"black\""
par WSN_EnergyEfficient.visualizer.routingTableVisualizer lineStyle "\"solid\""
par WSN_EnergyEfficient.visualizer.routingTableVisualizer lineWidth 2
par WSN_EnergyEfficient.visualizer.routingTableVisualizer lineShift 16
par WSN_EnergyEfficient.visualizer.routingTableVisualizer lineShiftMode "\"normal\""
par WSN_EnergyEfficient.visualizer.routingTableVisualizer lineContactSpacing 3
par WSN_EnergyEfficient.visualizer.routingTableVisualizer lineContactMode "\"rectangular\""
attr enum circular,rectangular
par WSN_EnergyEfficient.visualizer.routingTableVisualizer labelFormat "\"%d/%m -> %g (%n)\""
attr mutable ""
par WSN_EnergyEfficient.visualizer.routingTableVisualizer labelFont "\"<default>, 8px\""
par WSN_EnergyEfficient.visualizer.routingTableVisualizer labelColor "\"black\""
par WSN_EnergyEfficient.visualizer.routingTableVisualizer zIndex 0
par WSN_EnergyEfficient.visualizer.transportRouteVisualizer typename "\"inet.visualizer.canvas.transportlayer.TransportRouteCanvasVisualizer\""
par WSN_EnergyEfficient.visualizer.transportRouteVisualizer visualizationTargetModule "\"^.^\""
par WSN_EnergyEfficient.visualizer.transportRouteVisualizer visualizationSubjectModule "\"^.^\""
par WSN_EnergyEfficient.visualizer.transportRouteVisualizer tags "\"\""
par WSN_EnergyEfficient.visualizer.transportRouteVisualizer displayRoutes false
par WSN_EnergyEfficient.visualizer.transportRouteVisualizer startPathSignal "\"packetReceivedFromUpper\""
par WSN_EnergyEfficient.visualizer.transportRouteVisualizer extendPathSignal "\"packetReceivedFromLower\""
par WSN_EnergyEfficient.visualizer.transportRouteVisualizer endPathSignal "\"packetSentToUpper\""
par WSN_EnergyEfficient.visualizer.transportRouteVisualizer nodeFilter "\"*\""
attr mutable ""
par WSN_EnergyEfficient.visualizer.transportRouteVisualizer packetFilter "(omnetpp::cValueHolder)holder: \"*\""
attr mutable ""
par WSN_EnergyEfficient.visualizer.transportRouteVisualizer lineColor "\"dark\""
par WSN_EnergyEfficient.visualizer.transportRouteVisualizer lineStyle "\"solid\""
par WSN_EnergyEfficient.visualizer.transportRouteVisualizer lineWidth 3
par WSN_EnergyEfficient.visualizer.transportRouteVisualizer lineSmooth false
par WSN_EnergyEfficient.visualizer.transportRouteVisualizer lineShift 16
par WSN_EnergyEfficient.visualizer.transportRouteVisualizer lineShiftMode "\"normal\""
par WSN_EnergyEfficient.visualizer.transportRouteVisualizer lineContactSpacing 3
par WSN_EnergyEfficient.visualizer.transportRouteVisualizer lineContactMode "\"rectangular\""
attr enum circular,rectangular
par WSN_EnergyEfficient.visualizer.transportRouteVisualizer labelFormat "\"%n\""
par WSN_EnergyEfficient.visualizer.transportRouteVisualizer labelFont "\"<default>, 8px\""
par WSN_EnergyEfficient.visualizer.transportRouteVisualizer labelColor "\"\""
par WSN_EnergyEfficient.visualizer.transportRouteVisualizer fadeOutMode "\"realTime\""
attr enum realTime,animationTime,simulationTime
par WSN_EnergyEfficient.visualizer.transportRouteVisualizer fadeOutTime 1s
attr unit s
par WSN_EnergyEfficient.visualizer.transportRouteVisualizer fadeOutAnimationSpeed 0
par WSN_EnergyEfficient.visualizer.transportRouteVisualizer zIndex 4
par WSN_EnergyEfficient.visualizer.transportConnectionVisualizer typename "\"inet.visualizer.canvas.transportlayer.TransportConnectionCanvasVisualizer\""
par WSN_EnergyEfficient.visualizer.transportConnectionVisualizer visualizationTargetModule "\"^.^\""
par WSN_EnergyEfficient.visualizer.transportConnectionVisualizer visualizationSubjectModule "\"^.^\""
par WSN_EnergyEfficient.visualizer.transportConnectionVisualizer tags "\"\""
par WSN_EnergyEfficient.visualizer.transportConnectionVisualizer networkNodeVisualizerModule "\"^.networkNodeVisualizer\""
par WSN_EnergyEfficient.visualizer.transportConnectionVisualizer displayTransportConnections false
par WSN_EnergyEfficient.visualizer.transportConnectionVisualizer sourceNodeFilter "\"*\""
attr mutable ""
par WSN_EnergyEfficient.visualizer.transportConnectionVisualizer sourcePortFilter "\"*\""
attr mutable ""
par WSN_EnergyEfficient.visualizer.transportConnectionVisualizer destinationNodeFilter "\"*\""
attr mutable ""
par WSN_EnergyEfficient.visualizer.transportConnectionVisualizer destinationPortFilter "\"*\""
attr mutable ""
par WSN_EnergyEfficient.visualizer.transportConnectionVisualizer icon "\"misc/marker_s\""
par WSN_EnergyEfficient.visualizer.transportConnectionVisualizer iconColor "\"dark\""
par WSN_EnergyEfficient.visualizer.transportConnectionVisualizer labelFont "\"<default>\""
par WSN_EnergyEfficient.visualizer.transportConnectionVisualizer labelColor "\"black\""
par WSN_EnergyEfficient.visualizer.transportConnectionVisualizer placementHint "\"top\""
par WSN_EnergyEfficient.visualizer.transportConnectionVisualizer placementPriority 0
par WSN_EnergyEfficient.visualizer.transportConnectionVisualizer zIndex 4
par WSN_EnergyEfficient.visualizer.failureProtectionConfigurationVisualizer typename "\"inet.visualizer.canvas.configurator.FailureProtectionConfigurationCanvasVisualizer\""
par WSN_EnergyEfficient.visualizer.failureProtectionConfigurationVisualizer visualizationTargetModule "\"^.^\""
par WSN_EnergyEfficient.visualizer.failureProtectionConfigurationVisualizer visualizationSubjectModule "\"^.^\""
par WSN_EnergyEfficient.visualizer.failureProtectionConfigurationVisualizer tags "\"\""
par WSN_EnergyEfficient.visualizer.failureProtectionConfigurationVisualizer displayTrees false
par WSN_EnergyEfficient.visualizer.failureProtectionConfigurationVisualizer lineColor "\"dark\""
par WSN_EnergyEfficient.visualizer.failureProtectionConfigurationVisualizer lineStyle "\"solid\""
par WSN_EnergyEfficient.visualizer.failureProtectionConfigurationVisualizer lineWidth 3
par WSN_EnergyEfficient.visualizer.failureProtectionConfigurationVisualizer lineSmooth false
par WSN_EnergyEfficient.visualizer.failureProtectionConfigurationVisualizer lineShift 16
par WSN_EnergyEfficient.visualizer.failureProtectionConfigurationVisualizer lineShiftMode "\"normal\""
par WSN_EnergyEfficient.visualizer.failureProtectionConfigurationVisualizer lineContactSpacing 3
par WSN_EnergyEfficient.visualizer.failureProtectionConfigurationVisualizer lineContactMode "\"rectangular\""
attr enum circular,rectangular
par WSN_EnergyEfficient.visualizer.failureProtectionConfigurationVisualizer failureProtectionConfiguratorModule "\"failureProtectionConfigurator\""
par WSN_EnergyEfficient.visualizer.failureProtectionConfigurationVisualizer streamFilter "\"*\""
par WSN_EnergyEfficient.visualizer.failureProtectionConfigurationVisualizer zIndex 3
par WSN_EnergyEfficient.visualizer.streamRedundancyConfigurationVisualizer typename "\"inet.visualizer.canvas.configurator.StreamRedundancyConfigurationCanvasVisualizer\""
par WSN_EnergyEfficient.visualizer.streamRedundancyConfigurationVisualizer visualizationTargetModule "\"^.^\""
par WSN_EnergyEfficient.visualizer.streamRedundancyConfigurationVisualizer visualizationSubjectModule "\"^.^\""
par WSN_EnergyEfficient.visualizer.streamRedundancyConfigurationVisualizer tags "\"\""
par WSN_EnergyEfficient.visualizer.streamRedundancyConfigurationVisualizer displayTrees false
par WSN_EnergyEfficient.visualizer.streamRedundancyConfigurationVisualizer lineColor "\"dark\""
par WSN_EnergyEfficient.visualizer.streamRedundancyConfigurationVisualizer lineStyle "\"solid\""
par WSN_EnergyEfficient.visualizer.streamRedundancyConfigurationVisualizer lineWidth 3
par WSN_EnergyEfficient.visualizer.streamRedundancyConfigurationVisualizer lineSmooth false
par WSN_EnergyEfficient.visualizer.streamRedundancyConfigurationVisualizer lineShift 16
par WSN_EnergyEfficient.visualizer.streamRedundancyConfigurationVisualizer lineShiftMode "\"normal\""
par WSN_EnergyEfficient.visualizer.streamRedundancyConfigurationVisualizer lineContactSpacing 3
par WSN_EnergyEfficient.visualizer.streamRedundancyConfigurationVisualizer lineContactMode "\"rectangular\""
attr enum circular,rectangular
par WSN_EnergyEfficient.visualizer.streamRedundancyConfigurationVisualizer streamRedundancyConfiguratorModule "\"streamRedundancyConfigurator\""
par WSN_EnergyEfficient.visualizer.streamRedundancyConfigurationVisualizer streamFilter "\"*\""
par WSN_EnergyEfficient.visualizer.streamRedundancyConfigurationVisualizer zIndex 3
par WSN_EnergyEfficient.visualizer typename "\"inet.visualizer.canvas.integrated.IntegratedCanvasVisualizer\""
par WSN_EnergyEfficient.configurator typename "\"inet.networklayer.configurator.ipv4.Ipv4NetworkConfigurator\""
par WSN_EnergyEfficient.configurator minLinkWeight 0.001
par WSN_EnergyEfficient.configurator configureIsolatedNetworksSeparatly false
par WSN_EnergyEfficient.configurator config "<config>...</config> at content:1"
par WSN_EnergyEfficient.configurator assignAddresses true
par WSN_EnergyEfficient.configurator assignUniqueAddresses true
par WSN_EnergyEfficient.configurator assignDisjunctSubnetAddresses true
par WSN_EnergyEfficient.configurator addStaticRoutes true
par WSN_EnergyEfficient.configurator addDefaultRoutes true
par WSN_EnergyEfficient.configurator addSubnetRoutes true
par WSN_EnergyEfficient.configurator addDirectRoutes true
par WSN_EnergyEfficient.configurator optimizeRoutes true
par WSN_EnergyEfficient.configurator dumpTopology false
par WSN_EnergyEfficient.configurator dumpLinks false
par WSN_EnergyEfficient.configurator dumpAddresses false
par WSN_EnergyEfficient.configurator dumpRoutes false
par WSN_EnergyEfficient.configurator dumpConfig "\"\""
par WSN_EnergyEfficient.radioMedium.propagation typename "\"inet.physicallayer.wireless.common.propagation.ConstantSpeedPropagation\""
par WSN_EnergyEfficient.radioMedium.propagation propagationSpeed 2.99792e+08mps
attr unit mps
par WSN_EnergyEfficient.radioMedium.propagation ignoreMovementDuringTransmission true
par WSN_EnergyEfficient.radioMedium.propagation ignoreMovementDuringPropagation true
par WSN_EnergyEfficient.radioMedium.propagation ignoreMovementDuringReception true
scalar WSN_EnergyEfficient.radioMedium.propagation "Arrival computation count" 6960
par WSN_EnergyEfficient.radioMedium.analogModel typename "\"inet.physicallayer.wireless.common.analogmodel.packetlevel.ScalarAnalogModel\""
par WSN_EnergyEfficient.radioMedium.analogModel ignorePartialInterference false
par WSN_EnergyEfficient.radioMedium.backgroundNoise typename "\"inet.physicallayer.wireless.common.backgroundnoise.IsotropicScalarBackgroundNoise\""
par WSN_EnergyEfficient.radioMedium.backgroundNoise power -110dBm
attr unit dBm
par WSN_EnergyEfficient.radioMedium.backgroundNoise bandwidth "nan Hz"
attr unit Hz
par WSN_EnergyEfficient.radioMedium.pathLoss typename "\"inet.physicallayer.wireless.common.pathloss.FreeSpacePathLoss\""
par WSN_EnergyEfficient.radioMedium.pathLoss alpha 2
par WSN_EnergyEfficient.radioMedium.pathLoss systemLoss 0dB
attr unit dB
par WSN_EnergyEfficient.radioMedium.mediumLimitCache typename "\"inet.physicallayer.wireless.common.medium.MediumLimitCache\""
par WSN_EnergyEfficient.radioMedium.mediumLimitCache centerFrequency 2.4e+09Hz
attr unit Hz
par WSN_EnergyEfficient.radioMedium.mediumLimitCache maxSpeed "nan mps"
attr unit mps
par WSN_EnergyEfficient.radioMedium.mediumLimitCache maxTransmissionPower "nan W"
attr unit W
par WSN_EnergyEfficient.radioMedium.mediumLimitCache minInterferencePower -110dBm
attr unit dBm
par WSN_EnergyEfficient.radioMedium.mediumLimitCache minReceptionPower -85dBm
attr unit dBm
par WSN_EnergyEfficient.radioMedium.mediumLimitCache maxAntennaGain 0dB
attr unit dB
par WSN_EnergyEfficient.radioMedium.mediumLimitCache minInterferenceTime 1e-12s
attr unit s
par WSN_EnergyEfficient.radioMedium.mediumLimitCache maxTransmissionDuration 0.01s
attr unit s
par WSN_EnergyEfficient.radioMedium.mediumLimitCache maxCommunicationRange "nan m"
attr unit m
par WSN_EnergyEfficient.radioMedium.mediumLimitCache maxInterferenceRange "nan m"
attr unit m
par WSN_EnergyEfficient.radioMedium.communicationCache typename "\"inet.physicallayer.wireless.common.communicationcache.VectorCommunicationCache\""
par WSN_EnergyEfficient.radioMedium typename "\"inet.physicallayer.wireless.ieee80211.packetlevel.Ieee80211ScalarRadioMedium\""
par WSN_EnergyEfficient.radioMedium physicalEnvironmentModule "\"physicalEnvironment\""
par WSN_EnergyEfficient.radioMedium signalAnalogRepresentation "\"scalar\""
attr enum unitDisk,scalar,dimensional
par WSN_EnergyEfficient.radioMedium rangeFilter "\"\""
par WSN_EnergyEfficient.radioMedium radioModeFilter false
par WSN_EnergyEfficient.radioMedium listeningFilter false
par WSN_EnergyEfficient.radioMedium macAddressFilter false
par WSN_EnergyEfficient.radioMedium recordTransmissionLog false
par WSN_EnergyEfficient.radioMedium recordReceptionLog false
scalar WSN_EnergyEfficient.radioMedium "transmission count" 435
scalar WSN_EnergyEfficient.radioMedium "signal send count" 6960
scalar WSN_EnergyEfficient.radioMedium "reception computation count" 6949
scalar WSN_EnergyEfficient.radioMedium "interference computation count" 21305
scalar WSN_EnergyEfficient.radioMedium "reception decision computation count" 6944
scalar WSN_EnergyEfficient.radioMedium "listening decision computation count" 7412
scalar WSN_EnergyEfficient.radioMedium "reception cache hit" 85.708409600395
attr unit %
scalar WSN_EnergyEfficient.radioMedium "interference cache hit" 66.666666666667
attr unit %
scalar WSN_EnergyEfficient.radioMedium "noise cache hit" 0
attr unit %
scalar WSN_EnergyEfficient.radioMedium "snir cache hit" 50
attr unit %
scalar WSN_EnergyEfficient.radioMedium "reception decision cache hit" 50
attr unit %
scalar WSN_EnergyEfficient.radioMedium "reception result cache hit" 0
attr unit %
par WSN_EnergyEfficient.sensorNode0.radioIn[0].channel typename "\"ned.IdealChannel\""
par WSN_EnergyEfficient.sensorNode0.mobility typename "\"inet.mobility.static.StationaryMobility\""
par WSN_EnergyEfficient.sensorNode0.mobility subjectModule "\"^\""
par WSN_EnergyEfficient.sensorNode0.mobility coordinateSystemModule "\"\""
par WSN_EnergyEfficient.sensorNode0.mobility displayStringTextFormat "\"p: %p\\nv: %v\""
attr mutable ""
par WSN_EnergyEfficient.sensorNode0.mobility updateDisplayString true
par WSN_EnergyEfficient.sensorNode0.mobility constraintAreaMinX "-inf m"
attr unit m
par WSN_EnergyEfficient.sensorNode0.mobility constraintAreaMinY "-inf m"
attr unit m
par WSN_EnergyEfficient.sensorNode0.mobility constraintAreaMinZ "-inf m"
attr unit m
par WSN_EnergyEfficient.sensorNode0.mobility constraintAreaMaxX "inf m"
attr unit m
par WSN_EnergyEfficient.sensorNode0.mobility constraintAreaMaxY "inf m"
attr unit m
par WSN_EnergyEfficient.sensorNode0.mobility constraintAreaMaxZ "inf m"
attr unit m
par WSN_EnergyEfficient.sensorNode0.mobility initialX "nan m"
attr unit m
par WSN_EnergyEfficient.sensorNode0.mobility initialY "nan m"
attr unit m
par WSN_EnergyEfficient.sensorNode0.mobility initialZ 0m
attr unit m
par WSN_EnergyEfficient.sensorNode0.mobility initialLatitude "nan deg"
attr unit deg
par WSN_EnergyEfficient.sensorNode0.mobility initialLongitude "nan deg"
attr unit deg
par WSN_EnergyEfficient.sensorNode0.mobility initialAltitude 0m
attr unit m
par WSN_EnergyEfficient.sensorNode0.mobility initialHeading 0deg
attr unit deg
par WSN_EnergyEfficient.sensorNode0.mobility initialElevation 0deg
attr unit deg
par WSN_EnergyEfficient.sensorNode0.mobility initialBank 0deg
attr unit deg
par WSN_EnergyEfficient.sensorNode0.mobility initFromDisplayString true
par WSN_EnergyEfficient.sensorNode0.mobility updateFromDisplayString true
par WSN_EnergyEfficient.sensorNode0.interfaceTable typename "\"inet.networklayer.common.InterfaceTable\""
par WSN_EnergyEfficient.sensorNode0.interfaceTable displayAddresses false
par WSN_EnergyEfficient.sensorNode0.cb typename "\"inet.common.MessageDispatcher\""
par WSN_EnergyEfficient.sensorNode0.cb displayStringTextFormat "\"processed %p pk (%l)\""
par WSN_EnergyEfficient.sensorNode0.cb forwardServiceRegistration true
par WSN_EnergyEfficient.sensorNode0.cb forwardProtocolRegistration true
par WSN_EnergyEfficient.sensorNode0.bl typename "\"inet.common.MessageDispatcher\""
par WSN_EnergyEfficient.sensorNode0.bl displayStringTextFormat "\"processed %p pk (%l)\""
par WSN_EnergyEfficient.sensorNode0.bl forwardServiceRegistration true
par WSN_EnergyEfficient.sensorNode0.bl forwardProtocolRegistration true
par WSN_EnergyEfficient.sensorNode0.li typename "\"inet.common.MessageDispatcher\""
par WSN_EnergyEfficient.sensorNode0.li displayStringTextFormat "\"processed %p pk (%l)\""
par WSN_EnergyEfficient.sensorNode0.li forwardServiceRegistration true
par WSN_EnergyEfficient.sensorNode0.li forwardProtocolRegistration true
par WSN_EnergyEfficient.sensorNode0.lo[0].upperLayerIn.channel typename "\"ned.IdealChannel\""
par WSN_EnergyEfficient.sensorNode0.lo[0].lo.upperLayerOut.channel typename "\"ned.IdealChannel\""
par WSN_EnergyEfficient.sensorNode0.lo[0].lo typename "\"inet.linklayer.loopback.Loopback\""
par WSN_EnergyEfficient.sensorNode0.lo[0].lo interfaceTableModule "\"WSN_EnergyEfficient.sensorNode0.interfaceTable\""
par WSN_EnergyEfficient.sensorNode0.lo[0].lo mtu 4470B
attr unit B
scalar WSN_EnergyEfficient.sensorNode0.lo[0].lo rcvdPkFromHl:count 0
attr interpolationmode none
attr recordingmode count
attr source packetReceivedFromUpper
attr title "packets received from higher layer, count"
scalar WSN_EnergyEfficient.sensorNode0.lo[0].lo rcvdPkFromHl:sum(packetBytes) 0
attr interpolationmode none
attr recordingmode sum(packetBytes)
attr source packetReceivedFromUpper
attr title "packets received from higher layer, sum(packetBytes)"
scalar WSN_EnergyEfficient.sensorNode0.lo[0].lo passedUpPk:count 0
attr interpolationmode none
attr recordingmode count
attr source packetSentToUpper
attr title "packets passed to higher layer, count"
scalar WSN_EnergyEfficient.sensorNode0.lo[0].lo passedUpPk:sum(packetBytes) 0
attr interpolationmode none
attr recordingmode sum(packetBytes)
attr source packetSentToUpper
attr title "packets passed to higher layer, sum(packetBytes)"
par WSN_EnergyEfficient.sensorNode0.lo[0] typename "\"inet.linklayer.loopback.LoopbackInterface\""
par WSN_EnergyEfficient.sensorNode0.lo[0] displayStringTextFormat "\"%a (%i)\\n%m\""
par WSN_EnergyEfficient.sensorNode0.lo[0] recordPcap false
par WSN_EnergyEfficient.sensorNode0.lo[0] numPcapRecorders 0
par WSN_EnergyEfficient.sensorNode0.lo[0] interfaceTableModule "\"WSN_EnergyEfficient.sensorNode0.interfaceTable\""
scalar WSN_EnergyEfficient.sensorNode0.lo[0] packetDropInterfaceDown:count 0
attr interpolationmode none
attr recordingmode count
attr source packetDropReasonIsInterfaceDown(packetDropped)
attr title "packet drops: interface down, count"
scalar WSN_EnergyEfficient.sensorNode0.lo[0] packetDropInterfaceDown:sum(packetBytes) 0
attr interpolationmode none
attr recordingmode sum(packetBytes)
attr source packetDropReasonIsInterfaceDown(packetDropped)
attr title "packet drops: interface down, sum(packetBytes)"
scalar WSN_EnergyEfficient.sensorNode0.lo[0] packetDropNoCarrier:count 0
attr interpolationmode none
attr recordingmode count
attr source packetDropReasonIsNoCarrier(packetDropped)
attr title "packet drops: no carrier, count"
scalar WSN_EnergyEfficient.sensorNode0.lo[0] packetDropNoCarrier:sum(packetBytes) 0
attr interpolationmode none
attr recordingmode sum(packetBytes)
attr source packetDropReasonIsNoCarrier(packetDropped)
attr title "packet drops: no carrier, sum(packetBytes)"
par WSN_EnergyEfficient.sensorNode0.wlan[0].radioIn.channel typename "\"ned.IdealChannel\""
par WSN_EnergyEfficient.sensorNode0.wlan[0].llc.upperLayerOut.channel typename "\"ned.IdealChannel\""
par WSN_EnergyEfficient.sensorNode0.wlan[0].upperLayerIn.channel typename "\"ned.IdealChannel\""
par WSN_EnergyEfficient.sensorNode0.wlan[0].mib typename "\"inet.linklayer.ieee80211.mib.Ieee80211Mib\""
par WSN_EnergyEfficient.sensorNode0.wlan[0].llc typename "\"inet.linklayer.ieee80211.llc.Ieee80211LlcLpd\""
par WSN_EnergyEfficient.sensorNode0.wlan[0].llc registerProtocol false
par WSN_EnergyEfficient.sensorNode0.wlan[0].mgmt typename "\"inet.linklayer.ieee80211.mgmt.Ieee80211MgmtAdhoc\""
par WSN_EnergyEfficient.sensorNode0.wlan[0].mgmt mibModule "\"WSN_EnergyEfficient.sensorNode0.wlan[0].mib\""
par WSN_EnergyEfficient.sensorNode0.wlan[0].mgmt macModule "\"WSN_EnergyEfficient.sensorNode0.wlan[0].mac\""
par WSN_EnergyEfficient.sensorNode0.wlan[0].mgmt interfaceTableModule "\"WSN_EnergyEfficient.sensorNode0.interfaceTable\""
par WSN_EnergyEfficient.sensorNode0.wlan[0].mac.dcf.channelAccess.pendingQueue typename "\"inet.linklayer.ieee80211.mac.queue.PendingQueue\""
par WSN_EnergyEfficient.sensorNode0.wlan[0].mac.dcf.channelAccess.pendingQueue displayStringTextFormat "\"contains %p pk (%l) pushed %u\\npulled %o removed %r dropped %d\""
par WSN_EnergyEfficient.sensorNode0.wlan[0].mac.dcf.channelAccess.pendingQueue packetCapacity 100
par WSN_EnergyEfficient.sensorNode0.wlan[0].mac.dcf.channelAccess.pendingQueue dataCapacity -1b
attr unit b
par WSN_EnergyEfficient.sensorNode0.wlan[0].mac.dcf.channelAccess.pendingQueue dropperClass "\"inet::queueing::PacketAtCollectionEndDropper\""
par WSN_EnergyEfficient.sensorNode0.wlan[0].mac.dcf.channelAccess.pendingQueue comparatorClass "\"inet::ieee80211::MgmtOverDataComparator\""
par WSN_EnergyEfficient.sensorNode0.wlan[0].mac.dcf.channelAccess.pendingQueue bufferModule "\"\""
scalar WSN_EnergyEfficient.sensorNode0.wlan[0].mac.dcf.channelAccess.pendingQueue queueLength:last 0
attr autoWarmupFilter false
attr interpolationmode sample-hold
attr recordingmode last
attr source "warmup(atomic(constant0(packetPushEnded) + count(packetPushStarted) - count(packetPulled) - count(packetRemoved) - count(packetDropped)))"
attr title "queue length, last"
attr unit pk
scalar WSN_EnergyEfficient.sensorNode0.wlan[0].mac.dcf.channelAccess.pendingQueue queueLength:max 0
attr autoWarmupFilter false
attr interpolationmode sample-hold
attr recordingmode max
attr source "warmup(atomic(constant0(packetPushEnded) + count(packetPushStarted) - count(packetPulled) - count(packetRemoved) - count(packetDropped)))"
attr title "queue length, max"
attr unit pk
scalar WSN_EnergyEfficient.sensorNode0.wlan[0].mac.dcf.channelAccess.pendingQueue queueLength:timeavg 0
attr autoWarmupFilter false
attr interpolationmode sample-hold
attr recordingmode timeavg
attr source "warmup(atomic(constant0(packetPushEnded) + count(packetPushStarted) - count(packetPulled) - count(packetRemoved) - count(packetDropped)))"
attr title "queue length, timeavg"
attr unit pk
scalar WSN_EnergyEfficient.sensorNode0.wlan[0].mac.dcf.channelAccess.pendingQueue queueBitLength:last 0
attr autoWarmupFilter false
attr interpolationmode sample-hold
attr recordingmode last
attr source "warmup(atomic(constant0(packetPushEnded) + sum(packetLength(packetPushStarted)) - sum(packetLength(packetPulled)) - sum(packetLength(packetRemoved)) - sum(packetLength(packetDropped))))"
attr title "queue bit length, last"
attr unit b
scalar WSN_EnergyEfficient.sensorNode0.wlan[0].mac.dcf.channelAccess.pendingQueue queueBitLength:max 0
attr autoWarmupFilter false
attr interpolationmode sample-hold
attr recordingmode max
attr source "warmup(atomic(constant0(packetPushEnded) + sum(packetLength(packetPushStarted)) - sum(packetLength(packetPulled)) - sum(packetLength(packetRemoved)) - sum(packetLength(packetDropped))))"
attr title "queue bit length, max"
attr unit b
scalar WSN_EnergyEfficient.sensorNode0.wlan[0].mac.dcf.channelAccess.pendingQueue queueBitLength:timeavg 0
attr autoWarmupFilter false
attr interpolationmode sample-hold
attr recordingmode timeavg
attr source "warmup(atomic(constant0(packetPushEnded) + sum(packetLength(packetPushStarted)) - sum(packetLength(packetPulled)) - sum(packetLength(packetRemoved)) - sum(packetLength(packetDropped))))"
attr title "queue bit length, timeavg"
attr unit b
statistic WSN_EnergyEfficient.sensorNode0.wlan[0].mac.dcf.channelAccess.pendingQueue queueingTime:histogram
field count 0
field mean nan
field stddev nan
field min nan
field max nan
field sum 0
field sqrsum 0
attr interpolationmode none
attr recordingmode histogram
attr source queueingTime(packetPulled)
attr title "queueing times"
attr unit s
bin	-inf	0
bin	0	0
bin	1	0
scalar WSN_EnergyEfficient.sensorNode0.wlan[0].mac.dcf.channelAccess.pendingQueue outgoingPackets:count 0
attr recordingmode count
attr source packetPulled
attr title "outgoing packets, count"
attr unit pk
scalar WSN_EnergyEfficient.sensorNode0.wlan[0].mac.dcf.channelAccess.pendingQueue outgoingPacketLengths:sum 0
attr interpolationmode none
attr recordingmode sum
attr source packetLength(packetPulled)
attr title "outgoing packet lengths, sum"
attr unit b
statistic WSN_EnergyEfficient.sensorNode0.wlan[0].mac.dcf.channelAccess.pendingQueue outgoingPacketLengths:histogram
field count 0
field mean nan
field stddev nan
field min nan
field max nan
field sum 0
field sqrsum 0
attr interpolationmode none
attr recordingmode histogram
attr source packetLength(packetPulled)
attr title "outgoing packet lengths"
attr unit b
bin	-inf	0
bin	0	0
bin	1	0
statistic WSN_EnergyEfficient.sensorNode0.wlan[0].mac.dcf.channelAccess.pendingQueue flowQueueingTime:histogram
field count 0
field mean nan
field stddev nan
field min nan
field max nan
field sum 0
field sqrsum 0
attr interpolationmode none
attr recordingmode histogram
attr source queueingTime(demuxFlow(packetPulled))
attr title "flow queueing times"
attr unit s
bin	-inf	0
bin	0	0
bin	1	0
scalar WSN_EnergyEfficient.sensorNode0.wlan[0].mac.dcf.channelAccess.pendingQueue incomingPackets:count 0
attr recordingmode count
attr source packetPushStarted
attr title "incoming packets, count"
attr unit pk
scalar WSN_EnergyEfficient.sensorNode0.wlan[0].mac.dcf.channelAccess.pendingQueue incomingPacketLengths:sum 0
attr interpolationmode none
attr recordingmode sum
attr source packetLength(packetPushStarted)
attr title "incoming packet lengths, sum"
attr unit b
statistic WSN_EnergyEfficient.sensorNode0.wlan[0].mac.dcf.channelAccess.pendingQueue incomingPacketLengths:histogram
field count 0
field mean nan
field stddev nan
field min nan
field max nan
field sum 0
field sqrsum 0
attr interpolationmode none
attr recordingmode histogram
attr source packetLength(packetPushStarted)
attr title "incoming packet lengths"
attr unit b
bin	-inf	0
bin	0	0
bin	1	0
scalar WSN_EnergyEfficient.sensorNode0.wlan[0].mac.dcf.channelAccess.pendingQueue droppedPacketsQueueOverflow:count 0
attr interpolationmode none
attr recordingmode count
attr source packetDropReasonIsQueueOverflow(packetDropped)
attr title "dropped packets: queue overflow, count"
attr unit pk
scalar WSN_EnergyEfficient.sensorNode0.wlan[0].mac.dcf.channelAccess.pendingQueue droppedPacketLengthsQueueOverflow:sum 0
attr interpolationmode none
attr recordingmode sum
attr source packetLength(packetDropReasonIsQueueOverflow(packetDropped))
attr title "dropped packet lengths: queue overflow, sum"
attr unit b
par WSN_EnergyEfficient.sensorNode0.wlan[0].mac.dcf.channelAccess.inProgressFrames typename "\"inet.linklayer.ieee80211.mac.queue.InProgressFrames\""
par WSN_EnergyEfficient.sensorNode0.wlan[0].mac.dcf.channelAccess.inProgressFrames pendingQueueModule "\"^.pendingQueue\""
par WSN_EnergyEfficient.sensorNode0.wlan[0].mac.dcf.channelAccess.inProgressFrames originatorMacDataServiceModule "\"^.^.originatorMacDataService\""
par WSN_EnergyEfficient.sensorNode0.wlan[0].mac.dcf.channelAccess.inProgressFrames ackHandlerModule "\"^.^.ackHandler\""
statistic WSN_EnergyEfficient.sensorNode0.wlan[0].mac.dcf.channelAccess.inProgressFrames queueingTime:histogram
field count 0
field mean nan
field stddev nan
field min nan
field max nan
field sum 0
field sqrsum 0
attr interpolationmode none
attr recordingmode histogram
attr source queueingTime(packetDequeued)
attr title "queueing times"
bin	-inf	0
bin	0	0
bin	1	0
scalar WSN_EnergyEfficient.sensorNode0.wlan[0].mac.dcf.channelAccess.inProgressFrames queueLength:max 0
attr autoWarmupFilter false
attr interpolationmode sample-hold
attr recordingmode max
attr source "warmup(count(packetEnqueued) - count(packetDequeued))"
attr title "queue length, max"
scalar WSN_EnergyEfficient.sensorNode0.wlan[0].mac.dcf.channelAccess.inProgressFrames queueLength:timeavg 0
attr autoWarmupFilter false
attr interpolationmode sample-hold
attr recordingmode timeavg
attr source "warmup(count(packetEnqueued) - count(packetDequeued))"
attr title "queue length, timeavg"
par WSN_EnergyEfficient.sensorNode0.wlan[0].mac.dcf.channelAccess.contention typename "\"inet.linklayer.ieee80211.mac.contention.Contention\""
par WSN_EnergyEfficient.sensorNode0.wlan[0].mac.dcf.channelAccess.contention initialChannelBusy true
par WSN_EnergyEfficient.sensorNode0.wlan[0].mac.dcf.channelAccess.contention backoffOptimization true
scalar WSN_EnergyEfficient.sensorNode0.wlan[0].mac.dcf.channelAccess.contention stateChanged:count 1738
attr enum IDLE,DEFER,IFS_AND_BACKOFF
attr interpolationmode none
attr recordingmode count
attr title "contention state changed, count"
attr type enum
scalar WSN_EnergyEfficient.sensorNode0.wlan[0].mac.dcf.channelAccess.contention channelAccessGranted:count 0
attr recordingmode count
attr title "channel access granted, count"
par WSN_EnergyEfficient.sensorNode0.wlan[0].mac.dcf.channelAccess typename "\"inet.linklayer.ieee80211.mac.channelaccess.Dcaf\""
par WSN_EnergyEfficient.sensorNode0.wlan[0].mac.dcf.channelAccess difsn -1
par WSN_EnergyEfficient.sensorNode0.wlan[0].mac.dcf.channelAccess cwMin -1
par WSN_EnergyEfficient.sensorNode0.wlan[0].mac.dcf.channelAccess cwMax -1
par WSN_EnergyEfficient.sensorNode0.wlan[0].mac.dcf.channelAccess rxModule "\"^.^.rx\""
scalar WSN_EnergyEfficient.sensorNode0.wlan[0].mac.dcf.channelAccess channelOwnershipChanged:count 0
attr interpolationmode sample-hold
attr recordingmode count
attr title "channel ownership, count"
par WSN_EnergyEfficient.sensorNode0.wlan[0].mac.dcf.originatorMacDataService.fragmentationPolicy typename "\"inet.linklayer.ieee80211.mac.fragmentation.BasicFragmentationPolicy\""
par WSN_EnergyEfficient.sensorNode0.wlan[0].mac.dcf.originatorMacDataService.fragmentationPolicy fragmentationThreshold 1500B
attr unit B
par WSN_EnergyEfficient.sensorNode0.wlan[0].mac.dcf.originatorMacDataService typename "\"inet.linklayer.ieee80211.mac.originator.OriginatorMacDataService\""
scalar WSN_EnergyEfficient.sensorNode0.wlan[0].mac.dcf.originatorMacDataService packetAggregated:count 0
attr recordingmode count
attr title "packets aggregated, count"
scalar WSN_EnergyEfficient.sensorNode0.wlan[0].mac.dcf.originatorMacDataService packetFragmented:count 0
attr recordingmode count
attr title "packets fragmented, count"
par WSN_EnergyEfficient.sensorNode0.wlan[0].mac.dcf.recipientMacDataService typename "\"inet.linklayer.ieee80211.mac.recipient.RecipientMacDataService\""
scalar WSN_EnergyEfficient.sensorNode0.wlan[0].mac.dcf.recipientMacDataService packetDropDuplicateDetected:count 0
attr interpolationmode none
attr recordingmode count
attr source packetDropReasonIsDuplicateDetected(packetDropped)
attr title "packet drops: duplicate detected, count"
scalar WSN_EnergyEfficient.sensorNode0.wlan[0].mac.dcf.recipientMacDataService packetDropDuplicateDetected:sum(packetBytes) 0
attr interpolationmode none
attr recordingmode sum(packetBytes)
attr source packetDropReasonIsDuplicateDetected(packetDropped)
attr title "packet drops: duplicate detected, sum(packetBytes)"
scalar WSN_EnergyEfficient.sensorNode0.wlan[0].mac.dcf.recipientMacDataService packetDeaggregated:count 0
attr recordingmode count
attr title "packets deaggregated, count"
scalar WSN_EnergyEfficient.sensorNode0.wlan[0].mac.dcf.recipientMacDataService packetDefragmented:count 434
attr recordingmode count
attr title "packets defragmented, count"
par WSN_EnergyEfficient.sensorNode0.wlan[0].mac.dcf.rateSelection typename "\"inet.linklayer.ieee80211.mac.rateselection.RateSelection\""
par WSN_EnergyEfficient.sensorNode0.wlan[0].mac.dcf.rateSelection rateControlModule "\"^.rateControl\""
par WSN_EnergyEfficient.sensorNode0.wlan[0].mac.dcf.rateSelection multicastFrameBitrate -1bps
attr unit bps
par WSN_EnergyEfficient.sensorNode0.wlan[0].mac.dcf.rateSelection responseAckFrameBitrate -1bps
attr unit bps
par WSN_EnergyEfficient.sensorNode0.wlan[0].mac.dcf.rateSelection responseCtsFrameBitrate -1bps
attr unit bps
par WSN_EnergyEfficient.sensorNode0.wlan[0].mac.dcf.rateSelection dataFrameBitrate -1bps
attr unit bps
par WSN_EnergyEfficient.sensorNode0.wlan[0].mac.dcf.rateSelection dataFrameBandwidth "nan Hz"
attr unit Hz
par WSN_EnergyEfficient.sensorNode0.wlan[0].mac.dcf.rateSelection dataFrameNumSpatialStreams -1
par WSN_EnergyEfficient.sensorNode0.wlan[0].mac.dcf.rateSelection mgmtFrameBitrate -1bps
attr unit bps
par WSN_EnergyEfficient.sensorNode0.wlan[0].mac.dcf.rateSelection controlFrameBitrate -1bps
attr unit bps
par WSN_EnergyEfficient.sensorNode0.wlan[0].mac.dcf.recoveryProcedure typename "\"inet.linklayer.ieee80211.mac.originator.NonQosRecoveryProcedure\""
par WSN_EnergyEfficient.sensorNode0.wlan[0].mac.dcf.recoveryProcedure cwCalculatorModule "\"^.channelAccess\""
par WSN_EnergyEfficient.sensorNode0.wlan[0].mac.dcf.recoveryProcedure rtsPolicyModule "\"^.rtsPolicy\""
par WSN_EnergyEfficient.sensorNode0.wlan[0].mac.dcf.recoveryProcedure shortRetryLimit 7
par WSN_EnergyEfficient.sensorNode0.wlan[0].mac.dcf.recoveryProcedure longRetryLimit 4
scalar WSN_EnergyEfficient.sensorNode0.wlan[0].mac.dcf.recoveryProcedure retryLimitReached:count 0
attr recordingmode count
attr title "retry limit reached, count"
par WSN_EnergyEfficient.sensorNode0.wlan[0].mac.dcf.originatorProtectionMechanism typename "\"inet.linklayer.ieee80211.mac.protectionmechanism.OriginatorProtectionMechanism\""
par WSN_EnergyEfficient.sensorNode0.wlan[0].mac.dcf.originatorProtectionMechanism rateSelectionModule "\"^.rateSelection\""
par WSN_EnergyEfficient.sensorNode0.wlan[0].mac.dcf.ackHandler typename "\"inet.linklayer.ieee80211.mac.originator.AckHandler\""
par WSN_EnergyEfficient.sensorNode0.wlan[0].mac.dcf.originatorAckPolicy typename "\"inet.linklayer.ieee80211.mac.originator.OriginatorAckPolicy\""
par WSN_EnergyEfficient.sensorNode0.wlan[0].mac.dcf.originatorAckPolicy rateSelectionModule "\"^.rateSelection\""
par WSN_EnergyEfficient.sensorNode0.wlan[0].mac.dcf.originatorAckPolicy ackTimeout -1s
attr unit s
par WSN_EnergyEfficient.sensorNode0.wlan[0].mac.dcf.recipientAckPolicy typename "\"inet.linklayer.ieee80211.mac.recipient.RecipientAckPolicy\""
par WSN_EnergyEfficient.sensorNode0.wlan[0].mac.dcf.recipientAckPolicy rateSelectionModule "\"^.rateSelection\""
par WSN_EnergyEfficient.sensorNode0.wlan[0].mac.dcf.rtsPolicy typename "\"inet.linklayer.ieee80211.mac.originator.RtsPolicy\""
par WSN_EnergyEfficient.sensorNode0.wlan[0].mac.dcf.rtsPolicy rateSelectionModule "\"^.rateSelection\""
par WSN_EnergyEfficient.sensorNode0.wlan[0].mac.dcf.rtsPolicy ctsTimeout -1s
attr unit s
par WSN_EnergyEfficient.sensorNode0.wlan[0].mac.dcf.rtsPolicy rtsThreshold 2346B
attr unit B
par WSN_EnergyEfficient.sensorNode0.wlan[0].mac.dcf.ctsPolicy typename "\"inet.linklayer.ieee80211.mac.recipient.CtsPolicy\""
par WSN_EnergyEfficient.sensorNode0.wlan[0].mac.dcf.ctsPolicy rxModule "\"^.^.rx\""
par WSN_EnergyEfficient.sensorNode0.wlan[0].mac.dcf.ctsPolicy rateSelectionModule "\"^.rateSelection\""
par WSN_EnergyEfficient.sensorNode0.wlan[0].mac.dcf typename "\"inet.linklayer.ieee80211.mac.coordinationfunction.Dcf\""
par WSN_EnergyEfficient.sensorNode0.wlan[0].mac.dcf rxModule "\"^.rx\""
[...]
statistic WSN_EnergyEfficient.accessPoint1.wlan[0].radio radioChannel:histogram
field count 219
field mean 0
field stddev 0
field min 0
field max 0
field sum 0
field sqrsum 0
attr interpolationmode sample-hold
attr recordingmode histogram
attr source radioChannelChanged
attr title "Radio channel"
bin	-inf	0
bin	-0.5	0
bin	-0.48	0
bin	-0.46	0
bin	-0.44	0
bin	-0.42	0
bin	-0.4	0
bin	-0.38	0
bin	-0.36	0
bin	-0.34	0
bin	-0.32	0
bin	-0.3	0
bin	-0.28	0
bin	-0.26	0
bin	-0.24	0
bin	-0.22	0
bin	-0.2	0
bin	-0.18	0
bin	-0.16	0
bin	-0.14	0
bin	-0.12	0
bin	-0.1	0
bin	-0.08	0
bin	-0.06	0
bin	-0.04	0
bin	-0.02	0
bin	0	219
bin	0.02	0
bin	0.04	0
bin	0.06	0
bin	0.08	0
bin	0.1	0
bin	0.12	0
bin	0.14	0
bin	0.16	0
bin	0.18	0
bin	0.2	0
bin	0.22	0
bin	0.24	0
bin	0.26	0
bin	0.28	0
bin	0.3	0
bin	0.32	0
bin	0.34	0
bin	0.36	0
bin	0.38	0
bin	0.4	0
bin	0.42	0
bin	0.44	0
bin	0.46	0
bin	0.48	0
bin	0.5	0
par WSN_EnergyEfficient.accessPoint1.wlan[0] typename "\"inet.linklayer.ieee80211.Ieee80211Interface\""
par WSN_EnergyEfficient.accessPoint1.wlan[0] displayStringTextFormat "\"%a (%i)\\n%m\""
par WSN_EnergyEfficient.accessPoint1.wlan[0] recordPcap false
par WSN_EnergyEfficient.accessPoint1.wlan[0] numPcapRecorders 0
par WSN_EnergyEfficient.accessPoint1.wlan[0] interfaceTableModule "\"WSN_EnergyEfficient.accessPoint1.interfaceTable\""
par WSN_EnergyEfficient.accessPoint1.wlan[0] energySourceModule "\"\""
par WSN_EnergyEfficient.accessPoint1.wlan[0] opMode "\"g(mixed)\""
attr enum a,b,g(erp),g(mixed),n(mixed-2.4Ghz),p,ac
par WSN_EnergyEfficient.accessPoint1.wlan[0] address "\"0A-AA-00-00-00-11\""
attr mutable ""
par WSN_EnergyEfficient.accessPoint1.wlan[0] protocol "\"\""
par WSN_EnergyEfficient.accessPoint1.wlan[0] bitrate -1bps
attr unit bps
scalar WSN_EnergyEfficient.accessPoint1.wlan[0] packetDropInterfaceDown:count 0
attr interpolationmode none
attr recordingmode count
attr source packetDropReasonIsInterfaceDown(packetDropped)
attr title "packet drops: interface down, count"
scalar WSN_EnergyEfficient.accessPoint1.wlan[0] packetDropInterfaceDown:sum(packetBytes) 0
attr interpolationmode none
attr recordingmode sum(packetBytes)
attr source packetDropReasonIsInterfaceDown(packetDropped)
attr title "packet drops: interface down, sum(packetBytes)"
scalar WSN_EnergyEfficient.accessPoint1.wlan[0] packetDropNoCarrier:count 0
attr interpolationmode none
attr recordingmode count
attr source packetDropReasonIsNoCarrier(packetDropped)
attr title "packet drops: no carrier, count"
scalar WSN_EnergyEfficient.accessPoint1.wlan[0] packetDropNoCarrier:sum(packetBytes) 0
attr interpolationmode none
attr recordingmode sum(packetBytes)
attr source packetDropReasonIsNoCarrier(packetDropped)
attr title "packet drops: no carrier, sum(packetBytes)"
par WSN_EnergyEfficient.accessPoint1.ipv4.transportIn.channel typename "\"ned.IdealChannel\""
par WSN_EnergyEfficient.accessPoint1.ipv4.up.out[0].channel typename "\"ned.IdealChannel\""
par WSN_EnergyEfficient.accessPoint1.ipv4.lp.out[2].channel typename "\"ned.IdealChannel\""
par WSN_EnergyEfficient.accessPoint1.ipv4.ifIn.channel typename "\"ned.IdealChannel\""
par WSN_EnergyEfficient.accessPoint1.ipv4.configurator typename "\"inet.networklayer.configurator.ipv4.Ipv4NodeConfigurator\""
par WSN_EnergyEfficient.accessPoint1.ipv4.configurator interfaceTableModule "\"WSN_EnergyEfficient.accessPoint1.interfaceTable\""
par WSN_EnergyEfficient.accessPoint1.ipv4.configurator routingTableModule "\"WSN_EnergyEfficient.accessPoint1.ipv4.routingTable\""
par WSN_EnergyEfficient.accessPoint1.ipv4.configurator networkConfiguratorModule "\"configurator\""
par WSN_EnergyEfficient.accessPoint1.ipv4.configurator configureRoutingTable true
par WSN_EnergyEfficient.accessPoint1.ipv4.routingTable typename "\"inet.networklayer.ipv4.Ipv4RoutingTable\""
par WSN_EnergyEfficient.accessPoint1.ipv4.routingTable interfaceTableModule "\"WSN_EnergyEfficient.accessPoint1.interfaceTable\""
par WSN_EnergyEfficient.accessPoint1.ipv4.routingTable routerId "\"auto\""
par WSN_EnergyEfficient.accessPoint1.ipv4.routingTable netmaskRoutes "\"*\""
par WSN_EnergyEfficient.accessPoint1.ipv4.routingTable forwarding false
par WSN_EnergyEfficient.accessPoint1.ipv4.routingTable multicastForwarding false
par WSN_EnergyEfficient.accessPoint1.ipv4.routingTable useAdminDist false
par WSN_EnergyEfficient.accessPoint1.ipv4.routingTable routingFile "\"\""
par WSN_EnergyEfficient.accessPoint1.ipv4.natTable typename "\"inet.networklayer.ipv4.Ipv4NatTable\""
par WSN_EnergyEfficient.accessPoint1.ipv4.natTable networkProtocolModule "\"^.ip\""
par WSN_EnergyEfficient.accessPoint1.ipv4.natTable config "<config/> at content:1"
par WSN_EnergyEfficient.accessPoint1.ipv4.up typename "\"inet.common.MessageDispatcher\""
par WSN_EnergyEfficient.accessPoint1.ipv4.up displayStringTextFormat "\"processed %p pk (%l)\""
par WSN_EnergyEfficient.accessPoint1.ipv4.up forwardServiceRegistration true
par WSN_EnergyEfficient.accessPoint1.ipv4.up forwardProtocolRegistration true
par WSN_EnergyEfficient.accessPoint1.ipv4.igmp typename "\"inet.networklayer.ipv4.Igmpv2\""
par WSN_EnergyEfficient.accessPoint1.ipv4.igmp interfaceTableModule "\"WSN_EnergyEfficient.accessPoint1.interfaceTable\""
par WSN_EnergyEfficient.accessPoint1.ipv4.igmp routingTableModule "\"WSN_EnergyEfficient.accessPoint1.ipv4.routingTable\""
par WSN_EnergyEfficient.accessPoint1.ipv4.igmp crcMode "\"declared\""
attr enum declared,computed
par WSN_EnergyEfficient.accessPoint1.ipv4.igmp enabled true
par WSN_EnergyEfficient.accessPoint1.ipv4.igmp robustnessVariable 2
par WSN_EnergyEfficient.accessPoint1.ipv4.igmp queryInterval 125s
attr unit s
par WSN_EnergyEfficient.accessPoint1.ipv4.igmp queryResponseInterval 10s
attr unit s
par WSN_EnergyEfficient.accessPoint1.ipv4.igmp groupMembershipInterval 260s
attr unit s
par WSN_EnergyEfficient.accessPoint1.ipv4.igmp otherQuerierPresentInterval 255s
attr unit s
par WSN_EnergyEfficient.accessPoint1.ipv4.igmp startupQueryInterval 31.25s
attr unit s
par WSN_EnergyEfficient.accessPoint1.ipv4.igmp startupQueryCount 2
par WSN_EnergyEfficient.accessPoint1.ipv4.igmp lastMemberQueryInterval 1s
attr unit s
par WSN_EnergyEfficient.accessPoint1.ipv4.igmp lastMemberQueryCount 2
par WSN_EnergyEfficient.accessPoint1.ipv4.igmp unsolicitedReportInterval 10s
attr unit s
par WSN_EnergyEfficient.accessPoint1.ipv4.icmp typename "\"inet.networklayer.ipv4.Icmp\""
par WSN_EnergyEfficient.accessPoint1.ipv4.icmp interfaceTableModule "\"WSN_EnergyEfficient.accessPoint1.interfaceTable\""
par WSN_EnergyEfficient.accessPoint1.ipv4.icmp routingTableModule "\"WSN_EnergyEfficient.accessPoint1.ipv4.routingTable\""
par WSN_EnergyEfficient.accessPoint1.ipv4.icmp crcMode "\"declared\""
attr enum declared,computed
attr mutable ""
par WSN_EnergyEfficient.accessPoint1.ipv4.icmp quoteLength 8B
attr mutable ""
attr unit B
par WSN_EnergyEfficient.accessPoint1.ipv4.mp typename "\"inet.common.MessageDispatcher\""
par WSN_EnergyEfficient.accessPoint1.ipv4.mp displayStringTextFormat "\"processed %p pk (%l)\""
par WSN_EnergyEfficient.accessPoint1.ipv4.mp forwardServiceRegistration true
par WSN_EnergyEfficient.accessPoint1.ipv4.mp forwardProtocolRegistration true
par WSN_EnergyEfficient.accessPoint1.ipv4.ip typename "\"inet.networklayer.ipv4.Ipv4\""
par WSN_EnergyEfficient.accessPoint1.ipv4.ip interfaceTableModule "\"WSN_EnergyEfficient.accessPoint1.interfaceTable\""
par WSN_EnergyEfficient.accessPoint1.ipv4.ip routingTableModule "\"WSN_EnergyEfficient.accessPoint1.ipv4.routingTable\""
par WSN_EnergyEfficient.accessPoint1.ipv4.ip arpModule "\"WSN_EnergyEfficient.accessPoint1.ipv4.arp\""
par WSN_EnergyEfficient.accessPoint1.ipv4.ip icmpModule "\"WSN_EnergyEfficient.accessPoint1.ipv4.icmp\""
par WSN_EnergyEfficient.accessPoint1.ipv4.ip crcMode "\"declared\""
attr enum declared,computed
par WSN_EnergyEfficient.accessPoint1.ipv4.ip timeToLive 32
par WSN_EnergyEfficient.accessPoint1.ipv4.ip multicastTimeToLive 32
par WSN_EnergyEfficient.accessPoint1.ipv4.ip fragmentTimeout 60s
attr unit s
par WSN_EnergyEfficient.accessPoint1.ipv4.ip limitedBroadcast false
par WSN_EnergyEfficient.accessPoint1.ipv4.ip directBroadcastInterfaces "\"\""
scalar WSN_EnergyEfficient.accessPoint1.ipv4.ip packetDropAddressResolutionFailed:count 0
attr interpolationmode none
attr recordingmode count
attr source packetDropReasonIsAddressResolutionFailed(packetDropped)
attr title "packet drop: address resolution failed, count"
scalar WSN_EnergyEfficient.accessPoint1.ipv4.ip packetDropAddressResolutionFailed:sum(packetBytes) 0
attr interpolationmode none
attr recordingmode sum(packetBytes)
attr source packetDropReasonIsAddressResolutionFailed(packetDropped)
attr title "packet drop: address resolution failed, sum(packetBytes)"
scalar WSN_EnergyEfficient.accessPoint1.ipv4.ip packetDropHopLimitReached:count 0
attr interpolationmode none
attr recordingmode count
attr source packetDropReasonIsHopLimitReached(packetDropped)
attr title "packet drop: hop limit reached, count"
scalar WSN_EnergyEfficient.accessPoint1.ipv4.ip packetDropHopLimitReached:sum(packetBytes) 0
attr interpolationmode none
attr recordingmode sum(packetBytes)
attr source packetDropReasonIsHopLimitReached(packetDropped)
attr title "packet drop: hop limit reached, sum(packetBytes)"
scalar WSN_EnergyEfficient.accessPoint1.ipv4.ip packetDropForwardingDisabled:count 0
attr interpolationmode none
attr recordingmode count
attr source packetDropReasonIsForwardingDisabled(packetDropped)
attr title "packet drop: forwarding disabled, count"
scalar WSN_EnergyEfficient.accessPoint1.ipv4.ip packetDropForwardingDisabled:sum(packetBytes) 0
attr interpolationmode none
attr recordingmode sum(packetBytes)
attr source packetDropReasonIsForwardingDisabled(packetDropped)
attr title "packet drop: forwarding disabled, sum(packetBytes)"
scalar WSN_EnergyEfficient.accessPoint1.ipv4.ip packetDropNoInterfaceFound:count 0
attr interpolationmode none
attr recordingmode count
attr source packetDropReasonIsNoInterfaceFound(packetDropped)
attr title "packet drop: no interface found, count"
scalar WSN_EnergyEfficient.accessPoint1.ipv4.ip packetDropNoInterfaceFound:sum(packetBytes) 0
attr interpolationmode none
attr recordingmode sum(packetBytes)
attr source packetDropReasonIsNoInterfaceFound(packetDropped)
attr title "packet drop: no interface found, sum(packetBytes)"
scalar WSN_EnergyEfficient.accessPoint1.ipv4.ip packetDropNoRouteFound:count 0
attr interpolationmode none
attr recordingmode count
attr source packetDropReasonIsNoRouteFound(packetDropped)
attr title "packet drop: no route found, count"
scalar WSN_EnergyEfficient.accessPoint1.ipv4.ip packetDropNoRouteFound:sum(packetBytes) 0
attr interpolationmode none
attr recordingmode sum(packetBytes)
attr source packetDropReasonIsNoRouteFound(packetDropped)
attr title "packet drop: no route found, sum(packetBytes)"
scalar WSN_EnergyEfficient.accessPoint1.ipv4.ip packetDropUndefined:count 0
attr interpolationmode none
attr recordingmode count
attr source packetDropReasonIsUndefined(packetDropped)
attr title "packet drop: undefined, count"
scalar WSN_EnergyEfficient.accessPoint1.ipv4.ip packetDropUndefined:sum(packetBytes) 0
attr interpolationmode none
attr recordingmode sum(packetBytes)
attr source packetDropReasonIsUndefined(packetDropped)
attr title "packet drop: undefined, sum(packetBytes)"
par WSN_EnergyEfficient.accessPoint1.ipv4.arp typename "\"inet.networklayer.arp.ipv4.Arp\""
par WSN_EnergyEfficient.accessPoint1.ipv4.arp interfaceTableModule "\"WSN_EnergyEfficient.accessPoint1.interfaceTable\""
par WSN_EnergyEfficient.accessPoint1.ipv4.arp routingTableModule "\"WSN_EnergyEfficient.accessPoint1.ipv4.routingTable\""
par WSN_EnergyEfficient.accessPoint1.ipv4.arp retryTimeout 1s
attr unit s
par WSN_EnergyEfficient.accessPoint1.ipv4.arp retryCount 3
par WSN_EnergyEfficient.accessPoint1.ipv4.arp cacheTimeout 120s
attr unit s
par WSN_EnergyEfficient.accessPoint1.ipv4.arp proxyArpInterfaces "\"\""
scalar WSN_EnergyEfficient.accessPoint1.ipv4.arp arpReplySent:count 0
attr recordingmode count
attr source arpReplySent
attr title "ARP replies sent, count"
scalar WSN_EnergyEfficient.accessPoint1.ipv4.arp arpReplySent:sum(packetBytes) 0
attr recordingmode sum(packetBytes)
attr source arpReplySent
attr title "ARP replies sent, sum(packetBytes)"
scalar WSN_EnergyEfficient.accessPoint1.ipv4.arp arpRequestSent:count 0
attr recordingmode count
attr source arpRequestSent
attr title "ARP request sent, count"
scalar WSN_EnergyEfficient.accessPoint1.ipv4.arp arpRequestSent:sum(packetBytes) 0
attr recordingmode sum(packetBytes)
attr source arpRequestSent
attr title "ARP request sent, sum(packetBytes)"
scalar WSN_EnergyEfficient.accessPoint1.ipv4.arp arpResolutionFailed:count 0
attr recordingmode count
attr title "ARP failed resolutions, count"
scalar WSN_EnergyEfficient.accessPoint1.ipv4.arp arpResolutionCompleted:count 0
attr recordingmode count
attr title "ARP completed resolutions, count"
scalar WSN_EnergyEfficient.accessPoint1.ipv4.arp arpResolutionInitiated:count 0
attr recordingmode count
attr title "ARP initiated resolutions, count"
par WSN_EnergyEfficient.accessPoint1.ipv4.lp typename "\"inet.common.MessageDispatcher\""
par WSN_EnergyEfficient.accessPoint1.ipv4.lp displayStringTextFormat "\"processed %p pk (%l)\""
par WSN_EnergyEfficient.accessPoint1.ipv4.lp forwardServiceRegistration true
par WSN_EnergyEfficient.accessPoint1.ipv4.lp forwardProtocolRegistration true
par WSN_EnergyEfficient.accessPoint1.ipv4 typename "\"inet.networklayer.ipv4.Ipv4NetworkLayer\""
par WSN_EnergyEfficient.accessPoint1.ipv4 forwarding false
par WSN_EnergyEfficient.accessPoint1.ipv4 multicastForwarding false
par WSN_EnergyEfficient.accessPoint1.ipv4 interfaceTableModule "\"WSN_EnergyEfficient.accessPoint1.interfaceTable\""
par WSN_EnergyEfficient.accessPoint1.ipv4 displayStringTextFormat "\"%i\""
par WSN_EnergyEfficient.accessPoint1.nl typename "\"inet.common.MessageDispatcher\""
par WSN_EnergyEfficient.accessPoint1.nl displayStringTextFormat "\"processed %p pk (%l)\""
par WSN_EnergyEfficient.accessPoint1.nl forwardServiceRegistration true
par WSN_EnergyEfficient.accessPoint1.nl forwardProtocolRegistration true
par WSN_EnergyEfficient.accessPoint1.udp typename "\"inet.transportlayer.udp.Udp\""
par WSN_EnergyEfficient.accessPoint1.udp interfaceTableModule "\"WSN_EnergyEfficient.accessPoint1.interfaceTable\""
par WSN_EnergyEfficient.accessPoint1.udp icmpModule "\"^.ipv4.icmp\""
par WSN_EnergyEfficient.accessPoint1.udp icmpv6Module "\"^.ipv6.icmpv6\""
par WSN_EnergyEfficient.accessPoint1.udp crcMode "\"declared\""
attr enum disabled,declared,computed
par WSN_EnergyEfficient.accessPoint1.udp defaultMulticastLoop true
scalar WSN_EnergyEfficient.accessPoint1.udp packetReceived:count 0
attr interpolationmode none
attr recordingmode count
attr source packetReceived
attr title "packets received, count"
scalar WSN_EnergyEfficient.accessPoint1.udp packetReceived:sum(packetBytes) 0
attr interpolationmode none
attr recordingmode sum(packetBytes)
attr source packetReceived
attr title "packets received, sum(packetBytes)"
scalar WSN_EnergyEfficient.accessPoint1.udp packetSent:count 0
attr interpolationmode none
attr recordingmode count
attr source packetSent
attr title "packets sent, count"
scalar WSN_EnergyEfficient.accessPoint1.udp packetSent:sum(packetBytes) 0
attr interpolationmode none
attr recordingmode sum(packetBytes)
attr source packetSent
attr title "packets sent, sum(packetBytes)"
scalar WSN_EnergyEfficient.accessPoint1.udp passedUpPk:count 0
attr interpolationmode none
attr recordingmode count
attr source packetSentToUpper
attr title "packets passed up, count"
scalar WSN_EnergyEfficient.accessPoint1.udp droppedPkWrongPort:count 0
attr interpolationmode none
attr recordingmode count
attr source packetDropReasonIsNoPortFound(packetDropped)
attr title "packets dropped (wrong port), count"
scalar WSN_EnergyEfficient.accessPoint1.udp droppedPkBadChecksum:count 0
attr interpolationmode none
attr recordingmode count
attr source packetDropReasonIsIncorrectlyReceived(packetDropped)
attr title "packets dropped (checksum error), count"
par WSN_EnergyEfficient.accessPoint1.tcp typename "\"inet.transportlayer.tcp.Tcp\""
par WSN_EnergyEfficient.accessPoint1.tcp crcMode "\"declared\""
attr enum declared,computed
par WSN_EnergyEfficient.accessPoint1.tcp advertisedWindow 7504
par WSN_EnergyEfficient.accessPoint1.tcp delayedAcksEnabled false
par WSN_EnergyEfficient.accessPoint1.tcp nagleEnabled true
par WSN_EnergyEfficient.accessPoint1.tcp limitedTransmitEnabled false
par WSN_EnergyEfficient.accessPoint1.tcp increasedIWEnabled false
par WSN_EnergyEfficient.accessPoint1.tcp sackSupport false
par WSN_EnergyEfficient.accessPoint1.tcp windowScalingSupport false
par WSN_EnergyEfficient.accessPoint1.tcp windowScalingFactor -1
par WSN_EnergyEfficient.accessPoint1.tcp timestampSupport false
par WSN_EnergyEfficient.accessPoint1.tcp mss 536
par WSN_EnergyEfficient.accessPoint1.tcp msl 120s
attr unit s
par WSN_EnergyEfficient.accessPoint1.tcp tcpAlgorithmClass "\"TcpReno\""
par WSN_EnergyEfficient.accessPoint1.tcp useDataNotification false
par WSN_EnergyEfficient.accessPoint1.tcp dupthresh 3
par WSN_EnergyEfficient.accessPoint1.tcp initialSsthresh 4294967295
par WSN_EnergyEfficient.accessPoint1.tcp stopOperationExtraTime 0s
attr unit s
par WSN_EnergyEfficient.accessPoint1.tcp stopOperationTimeout 2s
attr unit s
par WSN_EnergyEfficient.accessPoint1.tcp ecnWillingness false
par WSN_EnergyEfficient.accessPoint1.tcp dctcpGamma 0.0625
par WSN_EnergyEfficient.accessPoint1.tn typename "\"inet.common.MessageDispatcher\""
par WSN_EnergyEfficient.accessPoint1.tn displayStringTextFormat "\"processed %p pk (%l)\""
par WSN_EnergyEfficient.accessPoint1.tn forwardServiceRegistration true
par WSN_EnergyEfficient.accessPoint1.tn forwardProtocolRegistration true
par WSN_EnergyEfficient.accessPoint1.at typename "\"inet.common.MessageDispatcher\""
par WSN_EnergyEfficient.accessPoint1.at displayStringTextFormat "\"processed %p pk (%l)\""
par WSN_EnergyEfficient.accessPoint1.at forwardServiceRegistration true
par WSN_EnergyEfficient.accessPoint1.at forwardProtocolRegistration true
par WSN_EnergyEfficient.accessPoint1 typename "\"WSN_EnergyEfficient.AccessPoint\""
par WSN_EnergyEfficient.accessPoint1 hasStatus false
par WSN_EnergyEfficient.accessPoint1 osgModel "\"\""
par WSN_EnergyEfficient.accessPoint1 osgModelColor "\"\""
par WSN_EnergyEfficient.accessPoint1 canvasImage "\"\""
par WSN_EnergyEfficient.accessPoint1 canvasImageColor "\"\""
par WSN_EnergyEfficient.accessPoint1 recordPcap false
par WSN_EnergyEfficient.accessPoint1 numPcapRecorders 0
par WSN_EnergyEfficient.accessPoint1 numLoInterfaces 1
par WSN_EnergyEfficient.accessPoint1 numWlanInterfaces 1
par WSN_EnergyEfficient.accessPoint1 numEthInterfaces 0
par WSN_EnergyEfficient.accessPoint1 numPppInterfaces 0
par WSN_EnergyEfficient.accessPoint1 numTunInterfaces 0
par WSN_EnergyEfficient.accessPoint1 numVirtInterfaces 0
par WSN_EnergyEfficient.accessPoint1 fcsMode "\"declared\""
attr enum declared,computed
par WSN_EnergyEfficient.accessPoint1 hasIpv4 true
par WSN_EnergyEfficient.accessPoint1 hasIpv6 false
par WSN_EnergyEfficient.accessPoint1 hasGn false
par WSN_EnergyEfficient.accessPoint1 forwarding false
par WSN_EnergyEfficient.accessPoint1 multicastForwarding false
par WSN_EnergyEfficient.accessPoint1 hasUdp true
par WSN_EnergyEfficient.accessPoint1 hasTcp true
par WSN_EnergyEfficient.accessPoint1 hasSctp false
par WSN_EnergyEfficient.accessPoint1 numApps 0
par WSN_EnergyEfficient typename "\"WSN_EnergyEfficient.WSN_EnergyEfficient\""

