file 2821533 1751720051                                         
version 3
run Common-0-20250701-23:24:39-22088
attr configname Common
attr datetime 20250701-23:24:39
attr datetimef 20250701-232439
attr experiment Common
attr inifile omnetpp.ini
attr iterationvars ""
attr iterationvarsd ""
attr iterationvarsf ""
attr measurement ""
attr network WSN_EnergyEfficient
attr processid 22088
attr repetition 0
attr replication #0
attr resultdir results
attr runnumber 0
attr seedset 0
config image-path ../../inet4.5/images
config **.radioMedium.backgroundNoise.power -110dBm
config *.configurator.addStaticRoutes false
config *.configurator.addDefaultRoutes false
config *.configurator.addSubnetRoutes false
config *.configurator.optimizeRoutes false
config *.sensorNode*.numApps 2
config *.sensorNode*.app[0].typename PingApp
config *.sensorNode*.app[0].destAddr "\"accessPoint0\""
config *.sensorNode*.app[0].startTime "uniform(1s, 10s)"
config *.sensorNode*.app[0].stopTime 190s
config *.sensorNode*.app[0].sendInterval exponential(20s)
config *.sensorNode*.app[0].packetSize 64B
config *.sensorNode*.app[0].printPing true
config *.sensorNode*.app[1].typename UdpBasicApp
config *.sensorNode*.app[1].destAddresses "\"accessPoint0\""
config *.sensorNode*.app[1].destPort 5000
config *.sensorNode*.app[1].messageLength 32B
config *.sensorNode*.app[1].sendInterval exponential(25s)
config *.sensorNode*.app[1].startTime "uniform(5s, 15s)"
config *.sensorNode*.app[1].stopTime 190s
config *.accessPoint*.numApps 1
config *.accessPoint*.hasStatus true
config *.accessPoint*.app[0].typename UdpSink
config *.accessPoint*.app[0].localPort 5000
config *.sensorNode*.wlan[0].radio.displayCommunicationRange false
config *.accessPoint*.wlan[0].radio.displayCommunicationRange false
config *.radioMedium.carrierFrequency 2.4GHz
config *.radioMedium.bandwidth 250kbps
config network WSN_EnergyEfficient
config sim-time-limit 200s
config *.visualizer.energyStorageVisualizer.displayEnergyStorages true
config *.visualizer.dataLinkVisualizer.displayLinks true
config *.visualizer.dataLinkVisualizer.packetFilter "\"*\""
config *.visualizer.networkRouteVisualizer.displayRoutes true
config *.visualizer.networkRouteVisualizer.packetFilter "\"*\""
config *.visualizer.networkRouteVisualizer.lineColor "\"blue\""
config *.visualizer.physicalLinkVisualizer.displayLinks true
config *.visualizer.mobilityVisualizer.displayMobility true
config *.visualizer.mobilityVisualizer.displayMovementTrails true
config *.sensorNode*.hasStatus true
config *.sensorNode*.energyStorage.typename SimpleEpEnergyStorage
config *.sensorNode*.wlan[0].radio.energyConsumer.typename StateBasedEpEnergyConsumer
config *.sensorNode*.energyManagement.typename SimpleEpEnergyManagement
config *.sensorNode*.energyStorage.nominalCapacity 0.15J
config *.sensorNode*.energyStorage.initialCapacity 0.15J
config *.sensorNode*.energyStorage.printCapacityStep 0.0015J
config *.sensorNode*.energyManagement.nodeShutdownCapacity 0.06J
config *.sensorNode*.energyManagement.nodeStartCapacity 0.09J
config *.sensorNode*.mobility.typename StationaryMobility
config *.sensorNode*.mobility.initFromDisplayString true
config *.accessPoint*.mobility.typename StationaryMobility
config *.accessPoint*.mobility.initFromDisplayString true

vector 0 WSN_EnergyEfficient.sensorNode0.energyStorage powerConsumption:vector ETV
attr interpolationmode sample-hold
attr recordingmode vector
attr source powerConsumptionChanged
attr title "Power consumption"
attr unit W
0	372427 103 0 17759 0 45.000000000001 7 0 0.002 0.002 4e-06
vector 2 WSN_EnergyEfficient.sensorNode0.energyStorage residualEnergyCapacity:vector ETV
attr interpolationmode linear
attr recordingmode vector
attr source residualEnergyCapacityChanged
attr title "Residual energy capacity"
attr unit J
2	372530 14715 0 56214 0 200 417 0.059999999999998 0.15 59.409941014948 8.6228980715496
vector 7 WSN_EnergyEfficient.sensorNode0.wlan[0].mac.dcf.channelAccess.pendingQueue queueLength:vector ETV
attr autoWarmupFilter false
attr interpolationmode sample-hold
attr recordingmode vector
attr source "warmup(atomic(constant0(packetPushEnded) + count(packetPushStarted) - count(packetPulled) - count(packetRemoved) - count(packetDropped)))"
attr title "queue length"
attr unit pk
7	387245 45 0 0 0 0 5 0 0 0 0
vector 8 WSN_EnergyEfficient.sensorNode0.wlan[0].mac.dcf.channelAccess.pendingQueue queueBitLength:vector ETV
attr autoWarmupFilter false
attr interpolationmode sample-hold
attr recordingmode vector
attr source "warmup(atomic(constant0(packetPushEnded) + sum(packetLength(packetPushStarted)) - sum(packetLength(packetPulled)) - sum(packetLength(packetRemoved)) - sum(packetLength(packetDropped))))"
attr title "queue bit length"
attr unit b
8	387290 45 0 0 0 0 5 0 0 0 0
vector 19 WSN_EnergyEfficient.sensorNode0.wlan[0].mac.dcf.channelAccess.inProgressFrames queueLength:vector ETV
attr autoWarmupFilter false
attr interpolationmode sample-hold
attr recordingmode vector
attr source "warmup(count(packetEnqueued) - count(packetDequeued))"
attr title "queue length"
19	387335 20 0 0 0 0 2 0 0 0 0
vector 21 WSN_EnergyEfficient.sensorNode0.wlan[0].mac.dcf.channelAccess.contention backoffActive:vector ETV
attr autoWarmupFilter false
attr interpolationmode sample-hold
attr recordingmode vector
attr source warmup(count(backoffStarted)-count(backoffStopped))
attr title "backoff active"
21	387355 20 0 0 0 0 2 0 0 0 0
vector 22 WSN_EnergyEfficient.sensorNode0.wlan[0].mac.dcf.channelAccess.contention stateChanged:vector ETV
attr enum IDLE,DEFER,IFS_AND_BACKOFF
attr interpolationmode none
attr recordingmode vector
attr title "contention state changed"
attr type enum
22	387375 76 0 17759 0 45.000000000001 4 0 0 0 0
vector 24 WSN_EnergyEfficient.sensorNode0.wlan[0].mac.dcf.recoveryProcedure contentionWindowChanged:vector ETV
attr interpolationmode sample-hold
attr recordingmode vector
attr title "contention window"
24	387451 11 0 0 0 0 1 31 31 31 961
vector 41 WSN_EnergyEfficient.sensorNode0.wlan[0].mac.dcf frameSequenceActive:vector ETV
attr autoWarmupFilter false
attr interpolationmode sample-hold
attr recordingmode vector
attr source warmup(count(frameSequenceStarted)-count(frameSequenceFinished))
attr title "frame sequence active"
41	387462 20 0 0 0 0 2 0 0 0 0
vector 55 WSN_EnergyEfficient.sensorNode0.wlan[0].radio.energyConsumer powerConsumption:vector ETV
attr interpolationmode sample-hold
attr recordingmode vector
attr source powerConsumptionChanged
attr title "Power consumption"
attr unit W
55	387482 100 0 17759 0 45.000000000001 6 0 0.002 0.002 4e-06
vector 56 WSN_EnergyEfficient.sensorNode0.wlan[0].radio radioMode:vector ETV
attr interpolationmode sample-hold
attr recordingmode vector
attr source radioModeChanged
attr title "Radio mode"
56	387582 58 0 17759 0 45.000000000001 4 0 2 2 4
vector 57 WSN_EnergyEfficient.sensorNode0.wlan[0].radio receptionState:vector ETV
attr interpolationmode sample-hold
attr recordingmode vector
attr source receptionStateChanged
attr title "Radio reception state"
57	387640 38 0 17759 0 45.000000000001 2 0 1 1 1
vector 59 WSN_EnergyEfficient.sensorNode0.wlan[0].radio radioChannel:vector ETV
attr interpolationmode sample-hold
attr recordingmode vector
attr source radioChannelChanged
attr title "Radio channel"
59	387678 10 0 0 0 0 1 0 0 0 0
vector 66 WSN_EnergyEfficient.sensorNode0.ipv4.ip packetDropNoRouteFound:vector(packetBytes) ETV
attr interpolationmode none
attr recordingmode vector(packetBytes)
attr source packetDropReasonIsNoRouteFound(packetDropped)
attr title "packet drop: no route found, packetBytes"
66	387688 111 3359 9887 8.598391696811 25.225237540785 4 60 92 304 24128
vector 70 WSN_EnergyEfficient.sensorNode0.udp packetSent:vector(packetBytes) ETV
attr interpolationmode none
attr recordingmode vector(packetBytes)
attr source packetSent
attr title "packets sent, packetBytes"
70	387799 56 4325 9886 11.027633703779 25.225237540785 2 40 40 80 3200
vector 72 WSN_EnergyEfficient.sensorNode0.udp passedUpPk:vector(count) ETV
attr interpolationmode none
attr recordingmode vector(count)
attr source packetSentToUpper
attr title "packets passed up, count"
72	387855 10 0 0 0 0 1 0 0 0 0
vector 73 WSN_EnergyEfficient.sensorNode0.udp droppedPkWrongPort:vector(count) ETV
attr interpolationmode none
attr recordingmode vector(count)
attr source packetDropReasonIsNoPortFound(packetDropped)
attr title "packets dropped (wrong port), count"
73	387865 10 0 0 0 0 1 0 0 0 0
vector 74 WSN_EnergyEfficient.sensorNode0.udp droppedPkBadChecksum:vector(count) ETV
attr interpolationmode none
attr recordingmode vector(count)
attr source packetDropReasonIsIncorrectlyReceived(packetDropped)
attr title "packets dropped (checksum error), count"
74	387875 10 0 0 0 0 1 0 0 0 0
vector 78 WSN_EnergyEfficient.sensorNode0.app[0] pingTxSeq:vector ETV
attr interpolationmode none
attr recordingmode vector
attr title "ping tx seq"
78	387885 53 3357 9200 8.598391696811 23.413570705752 2 0 1 1 1
vector 82 WSN_EnergyEfficient.sensorNode0.app[1] packetSent:vector(packetBytes) ETV
attr interpolationmode none
attr recordingmode vector(packetBytes)
attr source packetSent
attr title "packets sent, packetBytes"
82	387938 56 4323 9885 11.027633703779 25.225237540785 2 32 32 64 2048
vector 85 WSN_EnergyEfficient.sensorNode1.energyStorage powerConsumption:vector ETV
attr interpolationmode sample-hold
attr recordingmode vector
attr source powerConsumptionChanged
attr title "Power consumption"
attr unit W
85	387994 110 0 17760 0 45.000000000001 7 0 0.002 0.002 4e-06
vector 87 WSN_EnergyEfficient.sensorNode1.energyStorage residualEnergyCapacity:vector ETV
attr interpolationmode linear
attr recordingmode vector
attr source residualEnergyCapacityChanged
attr title "Residual energy capacity"
attr unit J
87	388104 15132 0 56214 0 200 417 0.059999999999998 0.15 59.409941014948 8.6228980715496
vector 92 WSN_EnergyEfficient.sensorNode1.wlan[0].mac.dcf.channelAccess.pendingQueue queueLength:vector ETV
attr autoWarmupFilter false
attr interpolationmode sample-hold
attr recordingmode vector
attr source "warmup(atomic(constant0(packetPushEnded) + count(packetPushStarted) - count(packetPulled) - count(packetRemoved) - count(packetDropped)))"
attr title "queue length"
attr unit pk
92	403236 50 0 0 0 0 5 0 0 0 0
vector 93 WSN_EnergyEfficient.sensorNode1.wlan[0].mac.dcf.channelAccess.pendingQueue queueBitLength:vector ETV
attr autoWarmupFilter false
attr interpolationmode sample-hold
attr recordingmode vector
attr source "warmup(atomic(constant0(packetPushEnded) + sum(packetLength(packetPushStarted)) - sum(packetLength(packetPulled)) - sum(packetLength(packetRemoved)) - sum(packetLength(packetDropped))))"
attr title "queue bit length"
attr unit b
93	403286 50 0 0 0 0 5 0 0 0 0
vector 104 WSN_EnergyEfficient.sensorNode1.wlan[0].mac.dcf.channelAccess.inProgressFrames queueLength:vector ETV
attr autoWarmupFilter false
attr interpolationmode sample-hold
attr recordingmode vector
attr source "warmup(count(packetEnqueued) - count(packetDequeued))"
attr title "queue length"
104	403336 22 0 0 0 0 2 0 0 0 0
vector 106 WSN_EnergyEfficient.sensorNode1.wlan[0].mac.dcf.channelAccess.contention backoffActive:vector ETV
attr autoWarmupFilter false
attr interpolationmode sample-hold
attr recordingmode vector
attr source warmup(count(backoffStarted)-count(backoffStopped))
attr title "backoff active"
106	403358 22 0 0 0 0 2 0 0 0 0
vector 107 WSN_EnergyEfficient.sensorNode1.wlan[0].mac.dcf.channelAccess.contention stateChanged:vector ETV
attr enum IDLE,DEFER,IFS_AND_BACKOFF
attr interpolationmode none
attr recordingmode vector
attr title "contention state changed"
attr type enum
107	403380 80 0 17760 0 45.000000000001 4 0 0 0 0
vector 109 WSN_EnergyEfficient.sensorNode1.wlan[0].mac.dcf.recoveryProcedure contentionWindowChanged:vector ETV
attr interpolationmode sample-hold
attr recordingmode vector
attr title "contention window"
109	403460 12 0 0 0 0 1 31 31 31 961
vector 126 WSN_EnergyEfficient.sensorNode1.wlan[0].mac.dcf frameSequenceActive:vector ETV
attr autoWarmupFilter false
attr interpolationmode sample-hold
attr recordingmode vector
attr source warmup(count(frameSequenceStarted)-count(frameSequenceFinished))
attr title "frame sequence active"
126	403472 22 0 0 0 0 2 0 0 0 0
vector 140 WSN_EnergyEfficient.sensorNode1.wlan[0].radio.energyConsumer powerConsumption:vector ETV
attr interpolationmode sample-hold
attr recordingmode vector
attr source powerConsumptionChanged
attr title "Power consumption"
attr unit W
140	403494 106 0 17760 0 45.000000000001 6 0 0.002 0.002 4e-06
vector 141 WSN_EnergyEfficient.sensorNode1.wlan[0].radio radioMode:vector ETV
attr interpolationmode sample-hold
attr recordingmode vector
attr source radioModeChanged
attr title "Radio mode"
141	403600 62 0 17760 0 45.000000000001 4 0 2 2 4
vector 142 WSN_EnergyEfficient.sensorNode1.wlan[0].radio receptionState:vector ETV
attr interpolationmode sample-hold
attr recordingmode vector
attr source receptionStateChanged
attr title "Radio reception state"
142	403662 40 0 17760 0 45.000000000001 2 0 1 1 1
vector 144 WSN_EnergyEfficient.sensorNode1.wlan[0].radio radioChannel:vector ETV
attr interpolationmode sample-hold
attr recordingmode vector
attr source radioChannelChanged
attr title "Radio channel"
144	403702 11 0 0 0 0 1 0 0 0 0
vector 151 WSN_EnergyEfficient.sensorNode1.ipv4.ip packetDropNoRouteFound:vector(packetBytes) ETV
attr interpolationmode none
attr recordingmode vector(packetBytes)
attr source packetDropReasonIsNoRouteFound(packetDropped)
attr title "packet drop: no route found, packetBytes"
151	403713 86 1871 5530 4.812893171096 14.013172325902 3 60 92 244 20528
vector 155 WSN_EnergyEfficient.sensorNode1.udp packetSent:vector(packetBytes) ETV
attr interpolationmode none
attr recordingmode vector(packetBytes)
attr source packetSent
attr title "packets sent, packetBytes"
155	403799 29 4428 4428 11.235636963975 11.235636963975 1 40 40 40 1600
vector 157 WSN_EnergyEfficient.sensorNode1.udp passedUpPk:vector(count) ETV
attr interpolationmode none
attr recordingmode vector(count)
attr source packetSentToUpper
attr title "packets passed up, count"
157	403828 11 0 0 0 0 1 0 0 0 0
vector 158 WSN_EnergyEfficient.sensorNode1.udp droppedPkWrongPort:vector(count) ETV
attr interpolationmode none
attr recordingmode vector(count)
attr source packetDropReasonIsNoPortFound(packetDropped)
attr title "packets dropped (wrong port), count"
158	403839 11 0 0 0 0 1 0 0 0 0
vector 159 WSN_EnergyEfficient.sensorNode1.udp droppedPkBadChecksum:vector(count) ETV
attr interpolationmode none
attr recordingmode vector(count)
attr source packetDropReasonIsIncorrectlyReceived(packetDropped)
attr title "packets dropped (checksum error), count"
159	403850 11 0 0 0 0 1 0 0 0 0
vector 163 WSN_EnergyEfficient.sensorNode1.app[0] pingTxSeq:vector ETV
attr interpolationmode none
attr recordingmode vector
attr title "ping tx seq"
163	403861 55 1869 5529 4.812893171096 14.013172325902 2 0 1 1 1
vector 167 WSN_EnergyEfficient.sensorNode1.app[1] packetSent:vector(packetBytes) ETV
attr interpolationmode none
attr recordingmode vector(packetBytes)
attr source packetSent
attr title "packets sent, packetBytes"
167	403916 29 4426 4426 11.235636963975 11.235636963975 1 32 32 32 1024
vector 170 WSN_EnergyEfficient.sensorNode2.energyStorage powerConsumption:vector ETV
attr interpolationmode sample-hold
attr recordingmode vector
attr source powerConsumptionChanged
attr title "Power consumption"
attr unit W
170	403945 117 0 17761 0 45.000000000001 7 0 0.002 0.002 4e-06
vector 172 WSN_EnergyEfficient.sensorNode2.energyStorage residualEnergyCapacity:vector ETV
attr interpolationmode linear
attr recordingmode vector
attr source residualEnergyCapacityChanged
attr title "Residual energy capacity"
attr unit J
172	404062 15549 0 56214 0 200 417 0.059999999999998 0.15 59.409941014948 8.6228980715496
vector 177 WSN_EnergyEfficient.sensorNode2.wlan[0].mac.dcf.channelAccess.pendingQueue queueLength:vector ETV
attr autoWarmupFilter false
attr interpolationmode sample-hold
attr recordingmode vector
attr source "warmup(atomic(constant0(packetPushEnded) + count(packetPushStarted) - count(packetPulled) - count(packetRemoved) - count(packetDropped)))"
attr title "queue length"
attr unit pk
177	419611 55 0 0 0 0 5 0 0 0 0
vector 178 WSN_EnergyEfficient.sensorNode2.wlan[0].mac.dcf.channelAccess.pendingQueue queueBitLength:vector ETV
attr autoWarmupFilter false
attr interpolationmode sample-hold
attr recordingmode vector
attr source "warmup(atomic(constant0(packetPushEnded) + sum(packetLength(packetPushStarted)) - sum(packetLength(packetPulled)) - sum(packetLength(packetRemoved)) - sum(packetLength(packetDropped))))"
attr title "queue bit length"
attr unit b
178	419666 55 0 0 0 0 5 0 0 0 0
vector 189 WSN_EnergyEfficient.sensorNode2.wlan[0].mac.dcf.channelAccess.inProgressFrames queueLength:vector ETV
attr autoWarmupFilter false
attr interpolationmode sample-hold
attr recordingmode vector
attr source "warmup(count(packetEnqueued) - count(packetDequeued))"
attr title "queue length"
189	419721 22 0 0 0 0 2 0 0 0 0
vector 191 WSN_EnergyEfficient.sensorNode2.wlan[0].mac.dcf.channelAccess.contention backoffActive:vector ETV
attr autoWarmupFilter false
attr interpolationmode sample-hold
attr recordingmode vector
attr source warmup(count(backoffStarted)-count(backoffStopped))
attr title "backoff active"
191	419743 22 0 0 0 0 2 0 0 0 0
vector 192 WSN_EnergyEfficient.sensorNode2.wlan[0].mac.dcf.channelAccess.contention stateChanged:vector ETV
attr enum IDLE,DEFER,IFS_AND_BACKOFF
attr interpolationmode none
attr recordingmode vector
attr title "contention state changed"
attr type enum
192	419765 80 0 17761 0 45.000000000001 4 0 0 0 0
vector 194 WSN_EnergyEfficient.sensorNode2.wlan[0].mac.dcf.recoveryProcedure contentionWindowChanged:vector ETV
attr interpolationmode sample-hold
attr recordingmode vector
attr title "contention window"
194	419845 12 0 0 0 0 1 31 31 31 961
vector 211 WSN_EnergyEfficient.sensorNode2.wlan[0].mac.dcf frameSequenceActive:vector ETV
attr autoWarmupFilter false
attr interpolationmode sample-hold
attr recordingmode vector
attr source warmup(count(frameSequenceStarted)-count(frameSequenceFinished))
attr title "frame sequence active"
211	419857 22 0 0 0 0 2 0 0 0 0
vector 225 WSN_EnergyEfficient.sensorNode2.wlan[0].radio.energyConsumer powerConsumption:vector ETV
attr interpolationmode sample-hold
attr recordingmode vector
attr source powerConsumptionChanged
attr title "Power consumption"
attr unit W
225	419879 106 0 17761 0 45.000000000001 6 0 0.002 0.002 4e-06
vector 226 WSN_EnergyEfficient.sensorNode2.wlan[0].radio radioMode:vector ETV
attr interpolationmode sample-hold
attr recordingmode vector
attr source radioModeChanged
attr title "Radio mode"
226	419985 62 0 17761 0 45.000000000001 4 0 2 2 4
vector 227 WSN_EnergyEfficient.sensorNode2.wlan[0].radio receptionState:vector ETV
attr interpolationmode sample-hold
attr recordingmode vector
attr source receptionStateChanged
attr title "Radio reception state"
227	420047 40 0 17761 0 45.000000000001 2 0 1 1 1
vector 229 WSN_EnergyEfficient.sensorNode2.wlan[0].radio radioChannel:vector ETV
attr interpolationmode sample-hold
attr recordingmode vector
attr source radioChannelChanged
attr title "Radio channel"
229	420087 11 0 0 0 0 1 0 0 0 0
vector 236 WSN_EnergyEfficient.sensorNode2.ipv4.ip packetDropNoRouteFound:vector(packetBytes) ETV
attr interpolationmode none
attr recordingmode vector(packetBytes)
attr source packetDropReasonIsNoRouteFound(packetDropped)
attr title "packet drop: no route found, packetBytes"
236	420098 236 1374 16793 3.677811447298 42.777913157836 8 60 92 608 48256
vector 240 WSN_EnergyEfficient.sensorNode2.udp packetSent:vector(packetBytes) ETV
attr interpolationmode none
attr recordingmode vector(packetBytes)
attr source packetSent
attr title "packets sent, packetBytes"
240	420334 119 5479 16792 13.917730017565 42.777913157836 4 40 40 160 6400
vector 242 WSN_EnergyEfficient.sensorNode2.udp passedUpPk:vector(count) ETV
attr interpolationmode none
attr recordingmode vector(count)
attr source packetSentToUpper
attr title "packets passed up, count"
242	420453 11 0 0 0 0 1 0 0 0 0
vector 243 WSN_EnergyEfficient.sensorNode2.udp droppedPkWrongPort:vector(count) ETV
attr interpolationmode none
attr recordingmode vector(count)
attr source packetDropReasonIsNoPortFound(packetDropped)
attr title "packets dropped (wrong port), count"
243	420464 11 0 0 0 0 1 0 0 0 0
vector 244 WSN_EnergyEfficient.sensorNode2.udp droppedPkBadChecksum:vector(count) ETV
attr interpolationmode none
attr recordingmode vector(count)
attr source packetDropReasonIsIncorrectlyReceived(packetDropped)
attr title "packets dropped (checksum error), count"
244	420475 11 0 0 0 0 1 0 0 0 0
vector 248 WSN_EnergyEfficient.sensorNode2.app[0] pingTxSeq:vector ETV
attr interpolationmode none
attr recordingmode vector
attr title "ping tx seq"
248	420486 113 1372 15383 3.677811447298 39.226510555224 4 0 3 6 14
vector 252 WSN_EnergyEfficient.sensorNode2.app[1] packetSent:vector(packetBytes) ETV
attr interpolationmode none
attr recordingmode vector(packetBytes)
attr source packetSent
attr title "packets sent, packetBytes"
252	420599 119 5477 16791 13.917730017565 42.777913157836 4 32 32 128 4096
vector 255 WSN_EnergyEfficient.sensorNode3.energyStorage powerConsumption:vector ETV
attr interpolationmode sample-hold
attr recordingmode vector
attr source powerConsumptionChanged
attr title "Power consumption"
attr unit W
255	420718 117 0 17762 0 45.000000000001 7 0 0.002 0.002 4e-06
vector 257 WSN_EnergyEfficient.sensorNode3.energyStorage residualEnergyCapacity:vector ETV
attr interpolationmode linear
attr recordingmode vector
attr source residualEnergyCapacityChanged
attr title "Residual energy capacity"
attr unit J
257	420835 15549 0 56214 0 200 417 0.059999999999998 0.15 59.409941014948 8.6228980715496
vector 262 WSN_EnergyEfficient.sensorNode3.wlan[0].mac.dcf.channelAccess.pendingQueue queueLength:vector ETV
attr autoWarmupFilter false
attr interpolationmode sample-hold
attr recordingmode vector
attr source "warmup(atomic(constant0(packetPushEnded) + count(packetPushStarted) - count(packetPulled) - count(packetRemoved) - count(packetDropped)))"
attr title "queue length"
attr unit pk
262	436384 55 0 0 0 0 5 0 0 0 0
vector 263 WSN_EnergyEfficient.sensorNode3.wlan[0].mac.dcf.channelAccess.pendingQueue queueBitLength:vector ETV
attr autoWarmupFilter false
attr interpolationmode sample-hold
attr recordingmode vector
attr source "warmup(atomic(constant0(packetPushEnded) + sum(packetLength(packetPushStarted)) - sum(packetLength(packetPulled)) - sum(packetLength(packetRemoved)) - sum(packetLength(packetDropped))))"
attr title "queue bit length"
attr unit b
263	436439 55 0 0 0 0 5 0 0 0 0
vector 274 WSN_EnergyEfficient.sensorNode3.wlan[0].mac.dcf.channelAccess.inProgressFrames queueLength:vector ETV
attr autoWarmupFilter false
attr interpolationmode sample-hold
attr recordingmode vector
attr source "warmup(count(packetEnqueued) - count(packetDequeued))"
attr title "queue length"
274	436494 22 0 0 0 0 2 0 0 0 0
vector 276 WSN_EnergyEfficient.sensorNode3.wlan[0].mac.dcf.channelAccess.contention backoffActive:vector ETV
attr autoWarmupFilter false
attr interpolationmode sample-hold
attr recordingmode vector
attr source warmup(count(backoffStarted)-count(backoffStopped))
attr title "backoff active"
276	436516 22 0 0 0 0 2 0 0 0 0
vector 277 WSN_EnergyEfficient.sensorNode3.wlan[0].mac.dcf.channelAccess.contention stateChanged:vector ETV
attr enum IDLE,DEFER,IFS_AND_BACKOFF
attr interpolationmode none
attr recordingmode vector
attr title "contention state changed"
attr type enum
277	436538 80 0 17762 0 45.000000000001 4 0 0 0 0
vector 279 WSN_EnergyEfficient.sensorNode3.wlan[0].mac.dcf.recoveryProcedure contentionWindowChanged:vector ETV
attr interpolationmode sample-hold
attr recordingmode vector
attr title "contention window"
279	436618 12 0 0 0 0 1 31 31 31 961
vector 296 WSN_EnergyEfficient.sensorNode3.wlan[0].mac.dcf frameSequenceActive:vector ETV
attr autoWarmupFilter false
attr interpolationmode sample-hold
attr recordingmode vector
attr source warmup(count(frameSequenceStarted)-count(frameSequenceFinished))
attr title "frame sequence active"
296	436630 22 0 0 0 0 2 0 0 0 0
vector 310 WSN_EnergyEfficient.sensorNode3.wlan[0].radio.energyConsumer powerConsumption:vector ETV
attr interpolationmode sample-hold
attr recordingmode vector
attr source powerConsumptionChanged
attr title "Power consumption"
attr unit W
310	436652 106 0 17762 0 45.000000000001 6 0 0.002 0.002 4e-06
vector 311 WSN_EnergyEfficient.sensorNode3.wlan[0].radio radioMode:vector ETV
attr interpolationmode sample-hold
attr recordingmode vector
attr source radioModeChanged
attr title "Radio mode"
311	436758 62 0 17762 0 45.000000000001 4 0 2 2 4
vector 312 WSN_EnergyEfficient.sensorNode3.wlan[0].radio receptionState:vector ETV
attr interpolationmode sample-hold
attr recordingmode vector
attr source receptionStateChanged
attr title "Radio reception state"
312	436820 40 0 17762 0 45.000000000001 2 0 1 1 1
vector 314 WSN_EnergyEfficient.sensorNode3.wlan[0].radio radioChannel:vector ETV
attr interpolationmode sample-hold
attr recordingmode vector
attr source radioChannelChanged
attr title "Radio channel"
314	436860 11 0 0 0 0 1 0 0 0 0
vector 321 WSN_EnergyEfficient.sensorNode3.ipv4.ip packetDropNoRouteFound:vector(packetBytes) ETV
attr interpolationmode none
attr recordingmode vector(packetBytes)
attr source packetDropReasonIsNoRouteFound(packetDropped)
attr title "packet drop: no route found, packetBytes"
321	436871 116 1676 12518 4.450973691884 31.854877165536 4 60 92 304 24128
vector 325 WSN_EnergyEfficient.sensorNode3.udp packetSent:vector(packetBytes) ETV
attr interpolationmode none
attr recordingmode vector(packetBytes)
attr source packetSent
attr title "packets sent, packetBytes"
325	436987 58 3836 12517 9.776651116554 31.854877165536 2 40 40 80 3200
vector 327 WSN_EnergyEfficient.sensorNode3.udp passedUpPk:vector(count) ETV
attr interpolationmode none
attr recordingmode vector(count)
attr source packetSentToUpper
attr title "packets passed up, count"
327	437045 11 0 0 0 0 1 0 0 0 0
vector 328 WSN_EnergyEfficient.sensorNode3.udp droppedPkWrongPort:vector(count) ETV
attr interpolationmode none
attr recordingmode vector(count)
attr source packetDropReasonIsNoPortFound(packetDropped)
attr title "packets dropped (wrong port), count"
328	437056 11 0 0 0 0 1 0 0 0 0
vector 329 WSN_EnergyEfficient.sensorNode3.udp droppedPkBadChecksum:vector(count) ETV
attr interpolationmode none
attr recordingmode vector(count)
attr source packetDropReasonIsIncorrectlyReceived(packetDropped)
attr title "packets dropped (checksum error), count"
329	437067 11 0 0 0 0 1 0 0 0 0
vector 333 WSN_EnergyEfficient.sensorNode3.app[0] pingTxSeq:vector ETV
attr interpolationmode none
attr recordingmode vector
attr title "ping tx seq"
333	437078 56 1674 10173 4.450973691884 25.812417634874 2 0 1 1 1
vector 337 WSN_EnergyEfficient.sensorNode3.app[1] packetSent:vector(packetBytes) ETV
attr interpolationmode none
attr recordingmode vector(packetBytes)
attr source packetSent
attr title "packets sent, packetBytes"
337	437134 58 3834 12516 9.776651116554 31.854877165536 2 32 32 64 2048
vector 340 WSN_EnergyEfficient.sensorNode4.energyStorage powerConsumption:vector ETV
attr interpolationmode sample-hold
attr recordingmode vector
attr source powerConsumptionChanged
attr title "Power consumption"
attr unit W
340	437192 117 0 17763 0 45.000000000001 7 0 0.002 0.002 4e-06
vector 342 WSN_EnergyEfficient.sensorNode4.energyStorage residualEnergyCapacity:vector ETV
attr interpolationmode linear
attr recordingmode vector
attr source residualEnergyCapacityChanged
attr title "Residual energy capacity"
attr unit J
342	437309 15549 0 56214 0 200 417 0.059999999999998 0.15 59.409941014948 8.6228980715496
vector 347 WSN_EnergyEfficient.sensorNode4.wlan[0].mac.dcf.channelAccess.pendingQueue queueLength:vector ETV
attr autoWarmupFilter false
attr interpolationmode sample-hold
attr recordingmode vector
attr source "warmup(atomic(constant0(packetPushEnded) + count(packetPushStarted) - count(packetPulled) - count(packetRemoved) - count(packetDropped)))"
attr title "queue length"
attr unit pk
347	452858 55 0 0 0 0 5 0 0 0 0
vector 348 WSN_EnergyEfficient.sensorNode4.wlan[0].mac.dcf.channelAccess.pendingQueue queueBitLength:vector ETV
attr autoWarmupFilter false
attr interpolationmode sample-hold
attr recordingmode vector
attr source "warmup(atomic(constant0(packetPushEnded) + sum(packetLength(packetPushStarted)) - sum(packetLength(packetPulled)) - sum(packetLength(packetRemoved)) - sum(packetLength(packetDropped))))"
attr title "queue bit length"
attr unit b
348	452913 55 0 0 0 0 5 0 0 0 0
vector 359 WSN_EnergyEfficient.sensorNode4.wlan[0].mac.dcf.channelAccess.inProgressFrames queueLength:vector ETV
attr autoWarmupFilter false
attr interpolationmode sample-hold
attr recordingmode vector
attr source "warmup(count(packetEnqueued) - count(packetDequeued))"
attr title "queue length"
359	452968 22 0 0 0 0 2 0 0 0 0
vector 361 WSN_EnergyEfficient.sensorNode4.wlan[0].mac.dcf.channelAccess.contention backoffActive:vector ETV
attr autoWarmupFilter false
attr interpolationmode sample-hold
attr recordingmode vector
attr source warmup(count(backoffStarted)-count(backoffStopped))
attr title "backoff active"
361	452990 22 0 0 0 0 2 0 0 0 0
vector 362 WSN_EnergyEfficient.sensorNode4.wlan[0].mac.dcf.channelAccess.contention stateChanged:vector ETV
attr enum IDLE,DEFER,IFS_AND_BACKOFF
attr interpolationmode none
attr recordingmode vector
attr title "contention state changed"
attr type enum
362	453012 80 0 17763 0 45.000000000001 4 0 0 0 0
vector 364 WSN_EnergyEfficient.sensorNode4.wlan[0].mac.dcf.recoveryProcedure contentionWindowChanged:vector ETV
attr interpolationmode sample-hold
attr recordingmode vector
attr title "contention window"
364	453092 12 0 0 0 0 1 31 31 31 961
vector 381 WSN_EnergyEfficient.sensorNode4.wlan[0].mac.dcf frameSequenceActive:vector ETV
attr autoWarmupFilter false
attr interpolationmode sample-hold
attr recordingmode vector
attr source warmup(count(frameSequenceStarted)-count(frameSequenceFinished))
attr title "frame sequence active"
381	453104 22 0 0 0 0 2 0 0 0 0
vector 395 WSN_EnergyEfficient.sensorNode4.wlan[0].radio.energyConsumer powerConsumption:vector ETV
attr interpolationmode sample-hold
attr recordingmode vector
attr source powerConsumptionChanged
attr title "Power consumption"
attr unit W
395	453126 106 0 17763 0 45.000000000001 6 0 0.002 0.002 4e-06
vector 396 WSN_EnergyEfficient.sensorNode4.wlan[0].radio radioMode:vector ETV
attr interpolationmode sample-hold
attr recordingmode vector
attr source radioModeChanged
attr title "Radio mode"
396	453232 62 0 17763 0 45.000000000001 4 0 2 2 4
vector 397 WSN_EnergyEfficient.sensorNode4.wlan[0].radio receptionState:vector ETV
attr interpolationmode sample-hold
attr recordingmode vector
attr source receptionStateChanged
attr title "Radio reception state"
397	453294 40 0 17763 0 45.000000000001 2 0 1 1 1
vector 399 WSN_EnergyEfficient.sensorNode4.wlan[0].radio radioChannel:vector ETV
attr interpolationmode sample-hold
attr recordingmode vector
attr source radioChannelChanged
attr title "Radio channel"
399	453334 11 0 0 0 0 1 0 0 0 0
vector 406 WSN_EnergyEfficient.sensorNode4.ipv4.ip packetDropNoRouteFound:vector(packetBytes) ETV
attr interpolationmode none
attr recordingmode vector(packetBytes)
attr source packetDropReasonIsNoRouteFound(packetDropped)
attr title "packet drop: no route found, packetBytes"
406	453345 114 2075 16351 5.319794542622 41.71617292831 4 60 92 304 24128
vector 410 WSN_EnergyEfficient.sensorNode4.udp packetSent:vector(packetBytes) ETV
attr interpolationmode none
attr recordingmode vector(packetBytes)
attr source packetSent
attr title "packets sent, packetBytes"
410	453459 57 4181 7336 10.680445637554 18.54848715892 2 40 40 80 3200
vector 412 WSN_EnergyEfficient.sensorNode4.udp passedUpPk:vector(count) ETV
attr interpolationmode none
attr recordingmode vector(count)
attr source packetSentToUpper
attr title "packets passed up, count"
412	453516 11 0 0 0 0 1 0 0 0 0
vector 413 WSN_EnergyEfficient.sensorNode4.udp droppedPkWrongPort:vector(count) ETV
attr interpolationmode none
attr recordingmode vector(count)
attr source packetDropReasonIsNoPortFound(packetDropped)
attr title "packets dropped (wrong port), count"
413	453527 11 0 0 0 0 1 0 0 0 0
vector 414 WSN_EnergyEfficient.sensorNode4.udp droppedPkBadChecksum:vector(count) ETV
attr interpolationmode none
attr recordingmode vector(count)
attr source packetDropReasonIsIncorrectlyReceived(packetDropped)
attr title "packets dropped (checksum error), count"
414	453538 11 0 0 0 0 1 0 0 0 0
vector 418 WSN_EnergyEfficient.sensorNode4.app[0] pingTxSeq:vector ETV
attr interpolationmode none
attr recordingmode vector
attr title "ping tx seq"
418	453549 55 2073 16350 5.319794542622 41.71617292831 2 0 1 1 1
vector 422 WSN_EnergyEfficient.sensorNode4.app[1] packetSent:vector(packetBytes) ETV
attr interpolationmode none
attr recordingmode vector(packetBytes)
attr source packetSent
attr title "packets sent, packetBytes"
422	453604 57 4179 7335 10.680445637554 18.54848715892 2 32 32 64 2048
vector 425 WSN_EnergyEfficient.sensorNode5.energyStorage powerConsumption:vector ETV
attr interpolationmode sample-hold
attr recordingmode vector
attr source powerConsumptionChanged
attr title "Power consumption"
attr unit W
425	453661 117 0 17764 0 45.000000000001 7 0 0.002 0.002 4e-06
vector 427 WSN_EnergyEfficient.sensorNode5.energyStorage residualEnergyCapacity:vector ETV
attr interpolationmode linear
attr recordingmode vector
attr source residualEnergyCapacityChanged
attr title "Residual energy capacity"
attr unit J
427	453778 15549 0 56214 0 200 417 0.059999999999998 0.15 59.409941014948 8.6228980715496
vector 432 WSN_EnergyEfficient.sensorNode5.wlan[0].mac.dcf.channelAccess.pendingQueue queueLength:vector ETV
attr autoWarmupFilter false
attr interpolationmode sample-hold
attr recordingmode vector
attr source "warmup(atomic(constant0(packetPushEnded) + count(packetPushStarted) - count(packetPulled) - count(packetRemoved) - count(packetDropped)))"
attr title "queue length"
attr unit pk
432	469327 55 0 0 0 0 5 0 0 0 0
vector 433 WSN_EnergyEfficient.sensorNode5.wlan[0].mac.dcf.channelAccess.pendingQueue queueBitLength:vector ETV
attr autoWarmupFilter false
attr interpolationmode sample-hold
attr recordingmode vector
attr source "warmup(atomic(constant0(packetPushEnded) + sum(packetLength(packetPushStarted)) - sum(packetLength(packetPulled)) - sum(packetLength(packetRemoved)) - sum(packetLength(packetDropped))))"
attr title "queue bit length"
attr unit b
433	469382 55 0 0 0 0 5 0 0 0 0
vector 444 WSN_EnergyEfficient.sensorNode5.wlan[0].mac.dcf.channelAccess.inProgressFrames queueLength:vector ETV
attr autoWarmupFilter false
attr interpolationmode sample-hold
attr recordingmode vector
attr source "warmup(count(packetEnqueued) - count(packetDequeued))"
attr title "queue length"
444	469437 22 0 0 0 0 2 0 0 0 0
vector 446 WSN_EnergyEfficient.sensorNode5.wlan[0].mac.dcf.channelAccess.contention backoffActive:vector ETV
attr autoWarmupFilter false
attr interpolationmode sample-hold
attr recordingmode vector
attr source warmup(count(backoffStarted)-count(backoffStopped))
attr title "backoff active"
446	469459 22 0 0 0 0 2 0 0 0 0
vector 447 WSN_EnergyEfficient.sensorNode5.wlan[0].mac.dcf.channelAccess.contention stateChanged:vector ETV
attr enum IDLE,DEFER,IFS_AND_BACKOFF
attr interpolationmode none
attr recordingmode vector
attr title "contention state changed"
attr type enum
447	469481 80 0 17764 0 45.000000000001 4 0 0 0 0
vector 449 WSN_EnergyEfficient.sensorNode5.wlan[0].mac.dcf.recoveryProcedure contentionWindowChanged:vector ETV
attr interpolationmode sample-hold
attr recordingmode vector
attr title "contention window"
449	469561 12 0 0 0 0 1 31 31 31 961
vector 466 WSN_EnergyEfficient.sensorNode5.wlan[0].mac.dcf frameSequenceActive:vector ETV
attr autoWarmupFilter false
attr interpolationmode sample-hold
attr recordingmode vector
attr source warmup(count(frameSequenceStarted)-count(frameSequenceFinished))
attr title "frame sequence active"
466	469573 22 0 0 0 0 2 0 0 0 0
vector 480 WSN_EnergyEfficient.sensorNode5.wlan[0].radio.energyConsumer powerConsumption:vector ETV
attr interpolationmode sample-hold
attr recordingmode vector
attr source powerConsumptionChanged
attr title "Power consumption"
attr unit W
480	469595 106 0 17764 0 45.000000000001 6 0 0.002 0.002 4e-06
vector 481 WSN_EnergyEfficient.sensorNode5.wlan[0].radio radioMode:vector ETV
attr interpolationmode sample-hold
attr recordingmode vector
attr source radioModeChanged
attr title "Radio mode"
481	469701 62 0 17764 0 45.000000000001 4 0 2 2 4
vector 482 WSN_EnergyEfficient.sensorNode5.wlan[0].radio receptionState:vector ETV
attr interpolationmode sample-hold
attr recordingmode vector
attr source receptionStateChanged
attr title "Radio reception state"
482	469763 40 0 17764 0 45.000000000001 2 0 1 1 1
vector 484 WSN_EnergyEfficient.sensorNode5.wlan[0].radio radioChannel:vector ETV
attr interpolationmode sample-hold
attr recordingmode vector
attr source radioChannelChanged
attr title "Radio channel"
484	469803 11 0 0 0 0 1 0 0 0 0
vector 491 WSN_EnergyEfficient.sensorNode5.ipv4.ip packetDropNoRouteFound:vector(packetBytes) ETV
attr interpolationmode none
attr recordingmode vector(packetBytes)
attr source packetDropReasonIsNoRouteFound(packetDropped)
attr title "packet drop: no route found, packetBytes"
491	469814 142 597 10568 1.639324528398 26.924593526112 5 60 92 428 37456
vector 495 WSN_EnergyEfficient.sensorNode5.udp packetSent:vector(packetBytes) ETV
attr interpolationmode none
attr recordingmode vector(packetBytes)
attr source packetSent
attr title "packets sent, packetBytes"
495	469956 28 3261 3261 8.373961616307 8.373961616307 1 40 40 40 1600
vector 497 WSN_EnergyEfficient.sensorNode5.udp passedUpPk:vector(count) ETV
attr interpolationmode none
attr recordingmode vector(count)
attr source packetSentToUpper
attr title "packets passed up, count"
497	469984 11 0 0 0 0 1 0 0 0 0
vector 498 WSN_EnergyEfficient.sensorNode5.udp droppedPkWrongPort:vector(count) ETV
attr interpolationmode none
attr recordingmode vector(count)
attr source packetDropReasonIsNoPortFound(packetDropped)
attr title "packets dropped (wrong port), count"
498	469995 11 0 0 0 0 1 0 0 0 0
vector 499 WSN_EnergyEfficient.sensorNode5.udp droppedPkBadChecksum:vector(count) ETV
attr interpolationmode none
attr recordingmode vector(count)
attr source packetDropReasonIsIncorrectlyReceived(packetDropped)
attr title "packets dropped (checksum error), count"
499	470006 11 0 0 0 0 1 0 0 0 0
vector 503 WSN_EnergyEfficient.sensorNode5.app[0] pingTxSeq:vector ETV
attr interpolationmode none
attr recordingmode vector
attr title "ping tx seq"
503	470017 110 595 10567 1.639324528398 26.924593526112 4 0 3 6 14
vector 507 WSN_EnergyEfficient.sensorNode5.app[1] packetSent:vector(packetBytes) ETV
attr interpolationmode none
attr recordingmode vector(packetBytes)
attr source packetSent
attr title "packets sent, packetBytes"
507	470127 28 3259 3259 8.373961616307 8.373961616307 1 32 32 32 1024
vector 510 WSN_EnergyEfficient.sensorNode6.energyStorage powerConsumption:vector ETV
attr interpolationmode sample-hold
attr recordingmode vector
attr source powerConsumptionChanged
attr title "Power consumption"
attr unit W
510	470155 117 0 17765 0 45.000000000001 7 0 0.002 0.002 4e-06
vector 512 WSN_EnergyEfficient.sensorNode6.energyStorage residualEnergyCapacity:vector ETV
attr interpolationmode linear
attr recordingmode vector
attr source residualEnergyCapacityChanged
attr title "Residual energy capacity"
attr unit J
512	470272 15549 0 56214 0 200 417 0.059999999999998 0.15 59.409941014948 8.6228980715496
vector 517 WSN_EnergyEfficient.sensorNode6.wlan[0].mac.dcf.channelAccess.pendingQueue queueLength:vector ETV
attr autoWarmupFilter false
attr interpolationmode sample-hold
attr recordingmode vector
attr source "warmup(atomic(constant0(packetPushEnded) + count(packetPushStarted) - count(packetPulled) - count(packetRemoved) - count(packetDropped)))"
attr title "queue length"
attr unit pk
517	485821 55 0 0 0 0 5 0 0 0 0
vector 518 WSN_EnergyEfficient.sensorNode6.wlan[0].mac.dcf.channelAccess.pendingQueue queueBitLength:vector ETV
attr autoWarmupFilter false
attr interpolationmode sample-hold
attr recordingmode vector
attr source "warmup(atomic(constant0(packetPushEnded) + sum(packetLength(packetPushStarted)) - sum(packetLength(packetPulled)) - sum(packetLength(packetRemoved)) - sum(packetLength(packetDropped))))"
attr title "queue bit length"
attr unit b
518	485876 55 0 0 0 0 5 0 0 0 0
vector 529 WSN_EnergyEfficient.sensorNode6.wlan[0].mac.dcf.channelAccess.inProgressFrames queueLength:vector ETV
attr autoWarmupFilter false
attr interpolationmode sample-hold
attr recordingmode vector
attr source "warmup(count(packetEnqueued) - count(packetDequeued))"
attr title "queue length"
529	485931 22 0 0 0 0 2 0 0 0 0
vector 531 WSN_EnergyEfficient.sensorNode6.wlan[0].mac.dcf.channelAccess.contention backoffActive:vector ETV
attr autoWarmupFilter false
attr interpolationmode sample-hold
attr recordingmode vector
attr source warmup(count(backoffStarted)-count(backoffStopped))
attr title "backoff active"
531	485953 22 0 0 0 0 2 0 0 0 0
vector 532 WSN_EnergyEfficient.sensorNode6.wlan[0].mac.dcf.channelAccess.contention stateChanged:vector ETV
attr enum IDLE,DEFER,IFS_AND_BACKOFF
attr interpolationmode none
attr recordingmode vector
attr title "contention state changed"
attr type enum
532	485975 80 0 17765 0 45.000000000001 4 0 0 0 0
vector 534 WSN_EnergyEfficient.sensorNode6.wlan[0].mac.dcf.recoveryProcedure contentionWindowChanged:vector ETV
attr interpolationmode sample-hold
attr recordingmode vector
attr title "contention window"
534	486055 12 0 0 0 0 1 31 31 31 961
vector 551 WSN_EnergyEfficient.sensorNode6.wlan[0].mac.dcf frameSequenceActive:vector ETV
attr autoWarmupFilter false
attr interpolationmode sample-hold
attr recordingmode vector
attr source warmup(count(frameSequenceStarted)-count(frameSequenceFinished))
attr title "frame sequence active"
551	486067 22 0 0 0 0 2 0 0 0 0
vector 565 WSN_EnergyEfficient.sensorNode6.wlan[0].radio.energyConsumer powerConsumption:vector ETV
attr interpolationmode sample-hold
attr recordingmode vector
attr source powerConsumptionChanged
attr title "Power consumption"
attr unit W
565	486089 106 0 17765 0 45.000000000001 6 0 0.002 0.002 4e-06
vector 566 WSN_EnergyEfficient.sensorNode6.wlan[0].radio radioMode:vector ETV
attr interpolationmode sample-hold
attr recordingmode vector
attr source radioModeChanged
attr title "Radio mode"
566	486195 62 0 17765 0 45.000000000001 4 0 2 2 4
vector 567 WSN_EnergyEfficient.sensorNode6.wlan[0].radio receptionState:vector ETV
attr interpolationmode sample-hold
attr recordingmode vector
attr source receptionStateChanged
attr title "Radio reception state"
567	486257 40 0 17765 0 45.000000000001 2 0 1 1 1
vector 569 WSN_EnergyEfficient.sensorNode6.wlan[0].radio radioChannel:vector ETV
attr interpolationmode sample-hold
attr recordingmode vector
attr source radioChannelChanged
attr title "Radio channel"
569	486297 11 0 0 0 0 1 0 0 0 0
vector 576 WSN_EnergyEfficient.sensorNode6.ipv4.ip packetDropNoRouteFound:vector(packetBytes) ETV
attr interpolationmode none
attr recordingmode vector(packetBytes)
attr source packetDropReasonIsNoRouteFound(packetDropped)
attr title "packet drop: no route found, packetBytes"
576	486308 147 1663 16931 4.314173836261 43.078960458386 5 60 92 364 27728
vector 580 WSN_EnergyEfficient.sensorNode6.udp packetSent:vector(packetBytes) ETV
attr interpolationmode none
attr recordingmode vector(packetBytes)
attr source packetSent
attr title "packets sent, packetBytes"
580	486455 89 5263 16930 13.326198428404 43.078960458386 3 40 40 120 4800
vector 582 WSN_EnergyEfficient.sensorNode6.udp passedUpPk:vector(count) ETV
attr interpolationmode none
attr recordingmode vector(count)
attr source packetSentToUpper
attr title "packets passed up, count"
582	486544 11 0 0 0 0 1 0 0 0 0
vector 583 WSN_EnergyEfficient.sensorNode6.udp droppedPkWrongPort:vector(count) ETV
attr interpolationmode none
attr recordingmode vector(count)
attr source packetDropReasonIsNoPortFound(packetDropped)
attr title "packets dropped (wrong port), count"
583	486555 11 0 0 0 0 1 0 0 0 0
vector 584 WSN_EnergyEfficient.sensorNode6.udp droppedPkBadChecksum:vector(count) ETV
attr interpolationmode none
attr recordingmode vector(count)
attr source packetDropReasonIsIncorrectlyReceived(packetDropped)
attr title "packets dropped (checksum error), count"
584	486566 11 0 0 0 0 1 0 0 0 0
vector 588 WSN_EnergyEfficient.sensorNode6.app[0] pingTxSeq:vector ETV
attr interpolationmode none
attr recordingmode vector
attr title "ping tx seq"
588	486577 56 1661 10519 4.314173836261 26.777539866927 2 0 1 1 1
vector 592 WSN_EnergyEfficient.sensorNode6.app[1] packetSent:vector(packetBytes) ETV
attr interpolationmode none
attr recordingmode vector(packetBytes)
attr source packetSent
attr title "packets sent, packetBytes"
592	486633 89 5261 16929 13.326198428404 43.078960458386 3 32 32 96 3072
vector 595 WSN_EnergyEfficient.sensorNode7.energyStorage powerConsumption:vector ETV
attr interpolationmode sample-hold
attr recordingmode vector
attr source powerConsumptionChanged
attr title "Power consumption"
attr unit W
595	486722 117 0 17766 0 45.000000000001 7 0 0.002 0.002 4e-06
vector 597 WSN_EnergyEfficient.sensorNode7.energyStorage residualEnergyCapacity:vector ETV
attr interpolationmode linear
attr recordingmode vector
attr source residualEnergyCapacityChanged
attr title "Residual energy capacity"
attr unit J
597	486839 15549 0 56214 0 200 417 0.059999999999998 0.15 59.409941014948 8.6228980715496
vector 602 WSN_EnergyEfficient.sensorNode7.wlan[0].mac.dcf.channelAccess.pendingQueue queueLength:vector ETV
attr autoWarmupFilter false
attr interpolationmode sample-hold
attr recordingmode vector
attr source "warmup(atomic(constant0(packetPushEnded) + count(packetPushStarted) - count(packetPulled) - count(packetRemoved) - count(packetDropped)))"
attr title "queue length"
attr unit pk
602	502388 55 0 0 0 0 5 0 0 0 0
vector 603 WSN_EnergyEfficient.sensorNode7.wlan[0].mac.dcf.channelAccess.pendingQueue queueBitLength:vector ETV
attr autoWarmupFilter false
attr interpolationmode sample-hold
attr recordingmode vector
attr source "warmup(atomic(constant0(packetPushEnded) + sum(packetLength(packetPushStarted)) - sum(packetLength(packetPulled)) - sum(packetLength(packetRemoved)) - sum(packetLength(packetDropped))))"
attr title "queue bit length"
attr unit b
603	502443 55 0 0 0 0 5 0 0 0 0
vector 614 WSN_EnergyEfficient.sensorNode7.wlan[0].mac.dcf.channelAccess.inProgressFrames queueLength:vector ETV
attr autoWarmupFilter false
attr interpolationmode sample-hold
attr recordingmode vector
attr source "warmup(count(packetEnqueued) - count(packetDequeued))"
attr title "queue length"
614	502498 22 0 0 0 0 2 0 0 0 0
vector 616 WSN_EnergyEfficient.sensorNode7.wlan[0].mac.dcf.channelAccess.contention backoffActive:vector ETV
attr autoWarmupFilter false
attr interpolationmode sample-hold
attr recordingmode vector
attr source warmup(count(backoffStarted)-count(backoffStopped))
attr title "backoff active"
616	502520 22 0 0 0 0 2 0 0 0 0
vector 617 WSN_EnergyEfficient.sensorNode7.wlan[0].mac.dcf.channelAccess.contention stateChanged:vector ETV
attr enum IDLE,DEFER,IFS_AND_BACKOFF
attr interpolationmode none
attr recordingmode vector
attr title "contention state changed"
attr type enum
617	502542 80 0 17766 0 45.000000000001 4 0 0 0 0
vector 619 WSN_EnergyEfficient.sensorNode7.wlan[0].mac.dcf.recoveryProcedure contentionWindowChanged:vector ETV
attr interpolationmode sample-hold
attr recordingmode vector
attr title "contention window"
619	502622 12 0 0 0 0 1 31 31 31 961
vector 636 WSN_EnergyEfficient.sensorNode7.wlan[0].mac.dcf frameSequenceActive:vector ETV
attr autoWarmupFilter false
attr interpolationmode sample-hold
attr recordingmode vector
attr source warmup(count(frameSequenceStarted)-count(frameSequenceFinished))
attr title "frame sequence active"
636	502634 22 0 0 0 0 2 0 0 0 0
vector 650 WSN_EnergyEfficient.sensorNode7.wlan[0].radio.energyConsumer powerConsumption:vector ETV
attr interpolationmode sample-hold
attr recordingmode vector
attr source powerConsumptionChanged
attr title "Power consumption"
attr unit W
650	502656 106 0 17766 0 45.000000000001 6 0 0.002 0.002 4e-06
vector 651 WSN_EnergyEfficient.sensorNode7.wlan[0].radio radioMode:vector ETV
attr interpolationmode sample-hold
attr recordingmode vector
attr source radioModeChanged
attr title "Radio mode"
651	502762 62 0 17766 0 45.000000000001 4 0 2 2 4
vector 652 WSN_EnergyEfficient.sensorNode7.wlan[0].radio receptionState:vector ETV
attr interpolationmode sample-hold
attr recordingmode vector
attr source receptionStateChanged
attr title "Radio reception state"
652	502824 40 0 17766 0 45.000000000001 2 0 1 1 1
vector 654 WSN_EnergyEfficient.sensorNode7.wlan[0].radio radioChannel:vector ETV
attr interpolationmode sample-hold
attr recordingmode vector
attr source radioChannelChanged
attr title "Radio channel"
654	502864 11 0 0 0 0 1 0 0 0 0
vector 661 WSN_EnergyEfficient.sensorNode7.ipv4.ip packetDropNoRouteFound:vector(packetBytes) ETV
attr interpolationmode none
attr recordingmode vector(packetBytes)
attr source packetDropReasonIsNoRouteFound(packetDropped)
attr title "packet drop: no route found, packetBytes"
661	502875 116 3454 17140 8.83010930731 43.599598212328 4 60 92 272 19264
vector 665 WSN_EnergyEfficient.sensorNode7.udp packetSent:vector(packetBytes) ETV
attr interpolationmode none
attr recordingmode vector(packetBytes)
attr source packetSent
attr title "packets sent, packetBytes"
665	502991 89 5386 17139 13.700872510672 43.599598212328 3 40 40 120 4800
vector 667 WSN_EnergyEfficient.sensorNode7.udp passedUpPk:vector(count) ETV
attr interpolationmode none
attr recordingmode vector(count)
attr source packetSentToUpper
attr title "packets passed up, count"
667	503080 11 0 0 0 0 1 0 0 0 0
vector 668 WSN_EnergyEfficient.sensorNode7.udp droppedPkWrongPort:vector(count) ETV
attr interpolationmode none
attr recordingmode vector(count)
attr source packetDropReasonIsNoPortFound(packetDropped)
attr title "packets dropped (wrong port), count"
668	503091 11 0 0 0 0 1 0 0 0 0
vector 669 WSN_EnergyEfficient.sensorNode7.udp droppedPkBadChecksum:vector(count) ETV
attr interpolationmode none
attr recordingmode vector(count)
attr source packetDropReasonIsIncorrectlyReceived(packetDropped)
attr title "packets dropped (checksum error), count"
669	503102 11 0 0 0 0 1 0 0 0 0
vector 673 WSN_EnergyEfficient.sensorNode7.app[0] pingTxSeq:vector ETV
attr interpolationmode none
attr recordingmode vector
attr title "ping tx seq"
673	503113 26 3452 3452 8.83010930731 8.83010930731 1 0 0 0 0
vector 677 WSN_EnergyEfficient.sensorNode7.app[1] packetSent:vector(packetBytes) ETV
attr interpolationmode none
attr recordingmode vector(packetBytes)
attr source packetSent
attr title "packets sent, packetBytes"
677	503139 89 5384 17138 13.700872510672 43.599598212328 3 32 32 96 3072
vector 680 WSN_EnergyEfficient.sensorNode8.energyStorage powerConsumption:vector ETV
attr interpolationmode sample-hold
attr recordingmode vector
attr source powerConsumptionChanged
attr title "Power consumption"
attr unit W
680	503228 117 0 17767 0 45.000000000001 7 0 0.002 0.002 4e-06
vector 682 WSN_EnergyEfficient.sensorNode8.energyStorage residualEnergyCapacity:vector ETV
attr interpolationmode linear
attr recordingmode vector
attr source residualEnergyCapacityChanged
attr title "Residual energy capacity"
attr unit J
682	503345 15549 0 56214 0 200 417 0.059999999999998 0.15 59.409941014948 8.6228980715496
vector 687 WSN_EnergyEfficient.sensorNode8.wlan[0].mac.dcf.channelAccess.pendingQueue queueLength:vector ETV
attr autoWarmupFilter false
attr interpolationmode sample-hold
attr recordingmode vector
attr source "warmup(atomic(constant0(packetPushEnded) + count(packetPushStarted) - count(packetPulled) - count(packetRemoved) - count(packetDropped)))"
attr title "queue length"
attr unit pk
687	518894 55 0 0 0 0 5 0 0 0 0
vector 688 WSN_EnergyEfficient.sensorNode8.wlan[0].mac.dcf.channelAccess.pendingQueue queueBitLength:vector ETV
attr autoWarmupFilter false
attr interpolationmode sample-hold
attr recordingmode vector
attr source "warmup(atomic(constant0(packetPushEnded) + sum(packetLength(packetPushStarted)) - sum(packetLength(packetPulled)) - sum(packetLength(packetRemoved)) - sum(packetLength(packetDropped))))"
attr title "queue bit length"
attr unit b
688	518949 55 0 0 0 0 5 0 0 0 0
vector 699 WSN_EnergyEfficient.sensorNode8.wlan[0].mac.dcf.channelAccess.inProgressFrames queueLength:vector ETV
attr autoWarmupFilter false
attr interpolationmode sample-hold
attr recordingmode vector
attr source "warmup(count(packetEnqueued) - count(packetDequeued))"
attr title "queue length"
699	519004 22 0 0 0 0 2 0 0 0 0
vector 701 WSN_EnergyEfficient.sensorNode8.wlan[0].mac.dcf.channelAccess.contention backoffActive:vector ETV
attr autoWarmupFilter false
attr interpolationmode sample-hold
attr recordingmode vector
attr source warmup(count(backoffStarted)-count(backoffStopped))
attr title "backoff active"
701	519026 22 0 0 0 0 2 0 0 0 0
vector 702 WSN_EnergyEfficient.sensorNode8.wlan[0].mac.dcf.channelAccess.contention stateChanged:vector ETV
attr enum IDLE,DEFER,IFS_AND_BACKOFF
attr interpolationmode none
attr recordingmode vector
attr title "contention state changed"
attr type enum
702	519048 80 0 17767 0 45.000000000001 4 0 0 0 0
vector 704 WSN_EnergyEfficient.sensorNode8.wlan[0].mac.dcf.recoveryProcedure contentionWindowChanged:vector ETV
attr interpolationmode sample-hold
attr recordingmode vector
attr title "contention window"
704	519128 12 0 0 0 0 1 31 31 31 961
vector 721 WSN_EnergyEfficient.sensorNode8.wlan[0].mac.dcf frameSequenceActive:vector ETV
attr autoWarmupFilter false
attr interpolationmode sample-hold
attr recordingmode vector
attr source warmup(count(frameSequenceStarted)-count(frameSequenceFinished))
attr title "frame sequence active"
721	519140 22 0 0 0 0 2 0 0 0 0
vector 735 WSN_EnergyEfficient.sensorNode8.wlan[0].radio.energyConsumer powerConsumption:vector ETV
attr interpolationmode sample-hold
attr recordingmode vector
attr source powerConsumptionChanged
attr title "Power consumption"
attr unit W
735	519162 106 0 17767 0 45.000000000001 6 0 0.002 0.002 4e-06
vector 736 WSN_EnergyEfficient.sensorNode8.wlan[0].radio radioMode:vector ETV
attr interpolationmode sample-hold
attr recordingmode vector
attr source radioModeChanged
attr title "Radio mode"
736	519268 62 0 17767 0 45.000000000001 4 0 2 2 4
vector 737 WSN_EnergyEfficient.sensorNode8.wlan[0].radio receptionState:vector ETV
attr interpolationmode sample-hold
attr recordingmode vector
attr source receptionStateChanged
attr title "Radio reception state"
737	519330 40 0 17767 0 45.000000000001 2 0 1 1 1
vector 739 WSN_EnergyEfficient.sensorNode8.wlan[0].radio radioChannel:vector ETV
attr interpolationmode sample-hold
attr recordingmode vector
attr source radioChannelChanged
attr title "Radio channel"
739	519370 11 0 0 0 0 1 0 0 0 0
vector 746 WSN_EnergyEfficient.sensorNode8.ipv4.ip packetDropNoRouteFound:vector(packetBytes) ETV
attr interpolationmode none
attr recordingmode vector(packetBytes)
attr source packetDropReasonIsNoRouteFound(packetDropped)
attr title "packet drop: no route found, packetBytes"
746	519381 56 3155 3759 8.208196772495 9.614793627989 2 60 92 152 12064
vector 750 WSN_EnergyEfficient.sensorNode8.udp packetSent:vector(packetBytes) ETV
attr interpolationmode none
attr recordingmode vector(packetBytes)
attr source packetSent
attr title "packets sent, packetBytes"
750	519437 28 3758 3758 9.614793627989 9.614793627989 1 40 40 40 1600
vector 752 WSN_EnergyEfficient.sensorNode8.udp passedUpPk:vector(count) ETV
attr interpolationmode none
attr recordingmode vector(count)
attr source packetSentToUpper
attr title "packets passed up, count"
752	519465 11 0 0 0 0 1 0 0 0 0
vector 753 WSN_EnergyEfficient.sensorNode8.udp droppedPkWrongPort:vector(count) ETV
attr interpolationmode none
attr recordingmode vector(count)
attr source packetDropReasonIsNoPortFound(packetDropped)
attr title "packets dropped (wrong port), count"
753	519476 11 0 0 0 0 1 0 0 0 0
vector 754 WSN_EnergyEfficient.sensorNode8.udp droppedPkBadChecksum:vector(count) ETV
attr interpolationmode none
attr recordingmode vector(count)
attr source packetDropReasonIsIncorrectlyReceived(packetDropped)
attr title "packets dropped (checksum error), count"
754	519487 11 0 0 0 0 1 0 0 0 0
vector 758 WSN_EnergyEfficient.sensorNode8.app[0] pingTxSeq:vector ETV
attr interpolationmode none
attr recordingmode vector
attr title "ping tx seq"
758	519498 27 3153 3153 8.208196772495 8.208196772495 1 0 0 0 0
vector 762 WSN_EnergyEfficient.sensorNode8.app[1] packetSent:vector(packetBytes) ETV
attr interpolationmode none
attr recordingmode vector(packetBytes)
attr source packetSent
attr title "packets sent, packetBytes"
762	519525 28 3756 3756 9.614793627989 9.614793627989 1 32 32 32 1024
vector 765 WSN_EnergyEfficient.sensorNode9.energyStorage powerConsumption:vector ETV
attr interpolationmode sample-hold
attr recordingmode vector
attr source powerConsumptionChanged
attr title "Power consumption"
attr unit W
765	519553 117 0 17768 0 45.000000000001 7 0 0.002 0.002 4e-06
vector 767 WSN_EnergyEfficient.sensorNode9.energyStorage residualEnergyCapacity:vector ETV
attr interpolationmode linear
attr recordingmode vector
attr source residualEnergyCapacityChanged
attr title "Residual energy capacity"
attr unit J
767	519670 15549 0 56214 0 200 417 0.059999999999998 0.15 59.409941014948 8.6228980715496
vector 772 WSN_EnergyEfficient.sensorNode9.wlan[0].mac.dcf.channelAccess.pendingQueue queueLength:vector ETV
attr autoWarmupFilter false
attr interpolationmode sample-hold
attr recordingmode vector
attr source "warmup(atomic(constant0(packetPushEnded) + count(packetPushStarted) - count(packetPulled) - count(packetRemoved) - count(packetDropped)))"
attr title "queue length"
attr unit pk
772	535219 55 0 0 0 0 5 0 0 0 0
vector 773 WSN_EnergyEfficient.sensorNode9.wlan[0].mac.dcf.channelAccess.pendingQueue queueBitLength:vector ETV
attr autoWarmupFilter false
attr interpolationmode sample-hold
attr recordingmode vector
attr source "warmup(atomic(constant0(packetPushEnded) + sum(packetLength(packetPushStarted)) - sum(packetLength(packetPulled)) - sum(packetLength(packetRemoved)) - sum(packetLength(packetDropped))))"
attr title "queue bit length"
attr unit b
773	535274 55 0 0 0 0 5 0 0 0 0
vector 784 WSN_EnergyEfficient.sensorNode9.wlan[0].mac.dcf.channelAccess.inProgressFrames queueLength:vector ETV
attr autoWarmupFilter false
attr interpolationmode sample-hold
attr recordingmode vector
attr source "warmup(count(packetEnqueued) - count(packetDequeued))"
attr title "queue length"
784	535329 22 0 0 0 0 2 0 0 0 0
vector 786 WSN_EnergyEfficient.sensorNode9.wlan[0].mac.dcf.channelAccess.contention backoffActive:vector ETV
attr autoWarmupFilter false
attr interpolationmode sample-hold
attr recordingmode vector
attr source warmup(count(backoffStarted)-count(backoffStopped))
attr title "backoff active"
786	535351 22 0 0 0 0 2 0 0 0 0
vector 787 WSN_EnergyEfficient.sensorNode9.wlan[0].mac.dcf.channelAccess.contention stateChanged:vector ETV
attr enum IDLE,DEFER,IFS_AND_BACKOFF
attr interpolationmode none
attr recordingmode vector
attr title "contention state changed"
attr type enum
787	535373 80 0 17768 0 45.000000000001 4 0 0 0 0
vector 789 WSN_EnergyEfficient.sensorNode9.wlan[0].mac.dcf.recoveryProcedure contentionWindowChanged:vector ETV
attr interpolationmode sample-hold
attr recordingmode vector
attr title "contention window"
789	535453 12 0 0 0 0 1 31 31 31 961
vector 806 WSN_EnergyEfficient.sensorNode9.wlan[0].mac.dcf frameSequenceActive:vector ETV
attr autoWarmupFilter false
attr interpolationmode sample-hold
attr recordingmode vector
attr source warmup(count(frameSequenceStarted)-count(frameSequenceFinished))
attr title "frame sequence active"
806	535465 22 0 0 0 0 2 0 0 0 0
vector 820 WSN_EnergyEfficient.sensorNode9.wlan[0].radio.energyConsumer powerConsumption:vector ETV
attr interpolationmode sample-hold
attr recordingmode vector
attr source powerConsumptionChanged
attr title "Power consumption"
attr unit W
820	535487 106 0 17768 0 45.000000000001 6 0 0.002 0.002 4e-06
vector 821 WSN_EnergyEfficient.sensorNode9.wlan[0].radio radioMode:vector ETV
attr interpolationmode sample-hold
attr recordingmode vector
attr source radioModeChanged
attr title "Radio mode"
821	535593 62 0 17768 0 45.000000000001 4 0 2 2 4
vector 822 WSN_EnergyEfficient.sensorNode9.wlan[0].radio receptionState:vector ETV
attr interpolationmode sample-hold
attr recordingmode vector
attr source receptionStateChanged
attr title "Radio reception state"
822	535655 40 0 17768 0 45.000000000001 2 0 1 1 1
vector 824 WSN_EnergyEfficient.sensorNode9.wlan[0].radio radioChannel:vector ETV
attr interpolationmode sample-hold
attr recordingmode vector
attr source radioChannelChanged
attr title "Radio channel"
824	535695 11 0 0 0 0 1 0 0 0 0
vector 831 WSN_EnergyEfficient.sensorNode9.ipv4.ip packetDropNoRouteFound:vector(packetBytes) ETV
attr interpolationmode none
attr recordingmode vector(packetBytes)
attr source packetDropReasonIsNoRouteFound(packetDropped)
attr title "packet drop: no route found, packetBytes"
831	535706 200 779 12813 2.064469813835 32.590111895715 7 60 92 612 54384
vector 835 WSN_EnergyEfficient.sensorNode9.udp packetSent:vector(packetBytes) ETV
attr interpolationmode none
attr recordingmode vector(packetBytes)
attr source packetSent
attr title "packets sent, packetBytes"
835	535906 29 4792 4792 12.206326515879 12.206326515879 1 40 40 40 1600
vector 837 WSN_EnergyEfficient.sensorNode9.udp passedUpPk:vector(count) ETV
attr interpolationmode none
attr recordingmode vector(count)
attr source packetSentToUpper
attr title "packets passed up, count"
837	535935 11 0 0 0 0 1 0 0 0 0
vector 838 WSN_EnergyEfficient.sensorNode9.udp droppedPkWrongPort:vector(count) ETV
attr interpolationmode none
attr recordingmode vector(count)
attr source packetDropReasonIsNoPortFound(packetDropped)
attr title "packets dropped (wrong port), count"
838	535946 11 0 0 0 0 1 0 0 0 0
vector 839 WSN_EnergyEfficient.sensorNode9.udp droppedPkBadChecksum:vector(count) ETV
attr interpolationmode none
attr recordingmode vector(count)
attr source packetDropReasonIsIncorrectlyReceived(packetDropped)
attr title "packets dropped (checksum error), count"
839	535957 11 0 0 0 0 1 0 0 0 0
vector 843 WSN_EnergyEfficient.sensorNode9.app[0] pingTxSeq:vector ETV
attr interpolationmode none
attr recordingmode vector
attr title "ping tx seq"
843	535968 165 777 12812 2.064469813835 32.590111895715 6 0 5 15 55
vector 847 WSN_EnergyEfficient.sensorNode9.app[1] packetSent:vector(packetBytes) ETV
attr interpolationmode none
attr recordingmode vector(packetBytes)
attr source packetSent
attr title "packets sent, packetBytes"
847	536133 29 4790 4790 12.206326515879 12.206326515879 1 32 32 32 1024
vector 850 WSN_EnergyEfficient.sensorNode10.energyStorage powerConsumption:vector ETV
attr interpolationmode sample-hold
attr recordingmode vector
attr source powerConsumptionChanged
attr title "Power consumption"
attr unit W
850	536162 117 0 17769 0 45.000000000001 7 0 0.002 0.002 4e-06
vector 852 WSN_EnergyEfficient.sensorNode10.energyStorage residualEnergyCapacity:vector ETV
attr interpolationmode linear
attr recordingmode vector
attr source residualEnergyCapacityChanged
attr title "Residual energy capacity"
attr unit J
852	536279 15549 0 56214 0 200 417 0.059999999999998 0.15 59.409941014948 8.6228980715496
vector 857 WSN_EnergyEfficient.sensorNode10.wlan[0].mac.dcf.channelAccess.pendingQueue queueLength:vector ETV
attr autoWarmupFilter false
attr interpolationmode sample-hold
attr recordingmode vector
attr source "warmup(atomic(constant0(packetPushEnded) + count(packetPushStarted) - count(packetPulled) - count(packetRemoved) - count(packetDropped)))"
attr title "queue length"
attr unit pk
857	551828 55 0 0 0 0 5 0 0 0 0
vector 858 WSN_EnergyEfficient.sensorNode10.wlan[0].mac.dcf.channelAccess.pendingQueue queueBitLength:vector ETV
attr autoWarmupFilter false
attr interpolationmode sample-hold
attr recordingmode vector
attr source "warmup(atomic(constant0(packetPushEnded) + sum(packetLength(packetPushStarted)) - sum(packetLength(packetPulled)) - sum(packetLength(packetRemoved)) - sum(packetLength(packetDropped))))"
attr title "queue bit length"
attr unit b
858	551883 55 0 0 0 0 5 0 0 0 0
vector 869 WSN_EnergyEfficient.sensorNode10.wlan[0].mac.dcf.channelAccess.inProgressFrames queueLength:vector ETV
attr autoWarmupFilter false
attr interpolationmode sample-hold
attr recordingmode vector
attr source "warmup(count(packetEnqueued) - count(packetDequeued))"
attr title "queue length"
869	551938 22 0 0 0 0 2 0 0 0 0
vector 871 WSN_EnergyEfficient.sensorNode10.wlan[0].mac.dcf.channelAccess.contention backoffActive:vector ETV
attr autoWarmupFilter false
attr interpolationmode sample-hold
attr recordingmode vector
attr source warmup(count(backoffStarted)-count(backoffStopped))
attr title "backoff active"
871	551960 22 0 0 0 0 2 0 0 0 0
vector 872 WSN_EnergyEfficient.sensorNode10.wlan[0].mac.dcf.channelAccess.contention stateChanged:vector ETV
attr enum IDLE,DEFER,IFS_AND_BACKOFF
attr interpolationmode none
attr recordingmode vector
attr title "contention state changed"
attr type enum
872	551982 80 0 17769 0 45.000000000001 4 0 0 0 0
vector 874 WSN_EnergyEfficient.sensorNode10.wlan[0].mac.dcf.recoveryProcedure contentionWindowChanged:vector ETV
attr interpolationmode sample-hold
attr recordingmode vector
attr title "contention window"
874	552062 12 0 0 0 0 1 31 31 31 961
vector 891 WSN_EnergyEfficient.sensorNode10.wlan[0].mac.dcf frameSequenceActive:vector ETV
attr autoWarmupFilter false
attr interpolationmode sample-hold
attr recordingmode vector
attr source warmup(count(frameSequenceStarted)-count(frameSequenceFinished))
attr title "frame sequence active"
891	552074 22 0 0 0 0 2 0 0 0 0
vector 905 WSN_EnergyEfficient.sensorNode10.wlan[0].radio.energyConsumer powerConsumption:vector ETV
attr interpolationmode sample-hold
attr recordingmode vector
attr source powerConsumptionChanged
attr title "Power consumption"
attr unit W
905	552096 106 0 17769 0 45.000000000001 6 0 0.002 0.002 4e-06
vector 906 WSN_EnergyEfficient.sensorNode10.wlan[0].radio radioMode:vector ETV
attr interpolationmode sample-hold
attr recordingmode vector
attr source radioModeChanged
attr title "Radio mode"
906	552202 62 0 17769 0 45.000000000001 4 0 2 2 4
vector 907 WSN_EnergyEfficient.sensorNode10.wlan[0].radio receptionState:vector ETV
attr interpolationmode sample-hold
attr recordingmode vector
attr source receptionStateChanged
attr title "Radio reception state"
907	552264 40 0 17769 0 45.000000000001 2 0 1 1 1
vector 909 WSN_EnergyEfficient.sensorNode10.wlan[0].radio radioChannel:vector ETV
attr interpolationmode sample-hold
attr recordingmode vector
attr source radioChannelChanged
attr title "Radio channel"
909	552304 11 0 0 0 0 1 0 0 0 0
vector 916 WSN_EnergyEfficient.sensorNode10.ipv4.ip packetDropNoRouteFound:vector(packetBytes) ETV
attr interpolationmode none
attr recordingmode vector(packetBytes)
attr source packetDropReasonIsNoRouteFound(packetDropped)
attr title "packet drop: no route found, packetBytes"
916	552315 87 2262 15171 5.836359054083 38.558028323499 3 60 92 212 15664
vector 920 WSN_EnergyEfficient.sensorNode10.udp packetSent:vector(packetBytes) ETV
attr interpolationmode none
attr recordingmode vector(packetBytes)
attr source packetSent
attr title "packets sent, packetBytes"
920	552402 59 5691 15170 14.446689186152 38.558028323499 2 40 40 80 3200
vector 922 WSN_EnergyEfficient.sensorNode10.udp passedUpPk:vector(count) ETV
attr interpolationmode none
attr recordingmode vector(count)
attr source packetSentToUpper
attr title "packets passed up, count"
922	552461 11 0 0 0 0 1 0 0 0 0
vector 923 WSN_EnergyEfficient.sensorNode10.udp droppedPkWrongPort:vector(count) ETV
attr interpolationmode none
attr recordingmode vector(count)
attr source packetDropReasonIsNoPortFound(packetDropped)
attr title "packets dropped (wrong port), count"
923	552472 11 0 0 0 0 1 0 0 0 0
vector 924 WSN_EnergyEfficient.sensorNode10.udp droppedPkBadChecksum:vector(count) ETV
attr interpolationmode none
attr recordingmode vector(count)
attr source packetDropReasonIsIncorrectlyReceived(packetDropped)
attr title "packets dropped (checksum error), count"
924	552483 11 0 0 0 0 1 0 0 0 0
vector 928 WSN_EnergyEfficient.sensorNode10.app[0] pingTxSeq:vector ETV
attr interpolationmode none
attr recordingmode vector
attr title "ping tx seq"
928	552494 27 2260 2260 5.836359054083 5.836359054083 1 0 0 0 0
vector 932 WSN_EnergyEfficient.sensorNode10.app[1] packetSent:vector(packetBytes) ETV
attr interpolationmode none
attr recordingmode vector(packetBytes)
attr source packetSent
attr title "packets sent, packetBytes"
932	552521 59 5689 15169 14.446689186152 38.558028323499 2 32 32 64 2048
vector 935 WSN_EnergyEfficient.sensorNode11.energyStorage powerConsumption:vector ETV
attr interpolationmode sample-hold
attr recordingmode vector
attr source powerConsumptionChanged
attr title "Power consumption"
attr unit W
935	552580 117 0 17770 0 45.000000000001 7 0 0.002 0.002 4e-06
vector 937 WSN_EnergyEfficient.sensorNode11.energyStorage residualEnergyCapacity:vector ETV
attr interpolationmode linear
attr recordingmode vector
attr source residualEnergyCapacityChanged
attr title "Residual energy capacity"
attr unit J
937	552697 15549 0 56214 0 200 417 0.059999999999998 0.15 59.409941014948 8.6228980715496
vector 942 WSN_EnergyEfficient.sensorNode11.wlan[0].mac.dcf.channelAccess.pendingQueue queueLength:vector ETV
attr autoWarmupFilter false
attr interpolationmode sample-hold
attr recordingmode vector
attr source "warmup(atomic(constant0(packetPushEnded) + count(packetPushStarted) - count(packetPulled) - count(packetRemoved) - count(packetDropped)))"
attr title "queue length"
attr unit pk
942	568246 55 0 0 0 0 5 0 0 0 0
vector 943 WSN_EnergyEfficient.sensorNode11.wlan[0].mac.dcf.channelAccess.pendingQueue queueBitLength:vector ETV
attr autoWarmupFilter false
attr interpolationmode sample-hold
attr recordingmode vector
attr source "warmup(atomic(constant0(packetPushEnded) + sum(packetLength(packetPushStarted)) - sum(packetLength(packetPulled)) - sum(packetLength(packetRemoved)) - sum(packetLength(packetDropped))))"
attr title "queue bit length"
attr unit b
943	568301 55 0 0 0 0 5 0 0 0 0
vector 954 WSN_EnergyEfficient.sensorNode11.wlan[0].mac.dcf.channelAccess.inProgressFrames queueLength:vector ETV
attr autoWarmupFilter false
attr interpolationmode sample-hold
attr recordingmode vector
attr source "warmup(count(packetEnqueued) - count(packetDequeued))"
attr title "queue length"
954	568356 22 0 0 0 0 2 0 0 0 0
vector 956 WSN_EnergyEfficient.sensorNode11.wlan[0].mac.dcf.channelAccess.contention backoffActive:vector ETV
attr autoWarmupFilter false
attr interpolationmode sample-hold
attr recordingmode vector
attr source warmup(count(backoffStarted)-count(backoffStopped))
attr title "backoff active"
956	568378 22 0 0 0 0 2 0 0 0 0
vector 957 WSN_EnergyEfficient.sensorNode11.wlan[0].mac.dcf.channelAccess.contention stateChanged:vector ETV
attr enum IDLE,DEFER,IFS_AND_BACKOFF
attr interpolationmode none
attr recordingmode vector
attr title "contention state changed"
attr type enum
957	568400 80 0 17770 0 45.000000000001 4 0 0 0 0
vector 959 WSN_EnergyEfficient.sensorNode11.wlan[0].mac.dcf.recoveryProcedure contentionWindowChanged:vector ETV
attr interpolationmode sample-hold
attr recordingmode vector
attr title "contention window"
959	568480 12 0 0 0 0 1 31 31 31 961
vector 976 WSN_EnergyEfficient.sensorNode11.wlan[0].mac.dcf frameSequenceActive:vector ETV
attr autoWarmupFilter false
attr interpolationmode sample-hold
attr recordingmode vector
attr source warmup(count(frameSequenceStarted)-count(frameSequenceFinished))
attr title "frame sequence active"
976	568492 22 0 0 0 0 2 0 0 0 0
vector 990 WSN_EnergyEfficient.sensorNode11.wlan[0].radio.energyConsumer powerConsumption:vector ETV
attr interpolationmode sample-hold
attr recordingmode vector
attr source powerConsumptionChanged
attr title "Power consumption"
attr unit W
990	568514 106 0 17770 0 45.000000000001 6 0 0.002 0.002 4e-06
vector 991 WSN_EnergyEfficient.sensorNode11.wlan[0].radio radioMode:vector ETV
attr interpolationmode sample-hold
attr recordingmode vector
attr source radioModeChanged
attr title "Radio mode"
991	568620 62 0 17770 0 45.000000000001 4 0 2 2 4
vector 992 WSN_EnergyEfficient.sensorNode11.wlan[0].radio receptionState:vector ETV
attr interpolationmode sample-hold
attr recordingmode vector
attr source receptionStateChanged
attr title "Radio reception state"
992	568682 40 0 17770 0 45.000000000001 2 0 1 1 1
vector 994 WSN_EnergyEfficient.sensorNode11.wlan[0].radio radioChannel:vector ETV
attr interpolationmode sample-hold
attr recordingmode vector
attr source radioChannelChanged
attr title "Radio channel"
994	568722 11 0 0 0 0 1 0 0 0 0
vector 1001 WSN_EnergyEfficient.sensorNode11.ipv4.ip packetDropNoRouteFound:vector(packetBytes) ETV
attr interpolationmode none
attr recordingmode vector(packetBytes)
attr source packetDropReasonIsNoRouteFound(packetDropped)
attr title "packet drop: no route found, packetBytes"
1001	568733 117 1826 5871 4.731957470067 14.794765191488 4 60 92 304 24128
vector 1005 WSN_EnergyEfficient.sensorNode11.udp packetSent:vector(packetBytes) ETV
attr interpolationmode none
attr recordingmode vector(packetBytes)
attr source packetSent
attr title "packets sent, packetBytes"
1005	568850 59 3814 5870 9.736004227307 14.794765191488 2 40 40 80 3200
vector 1007 WSN_EnergyEfficient.sensorNode11.udp passedUpPk:vector(count) ETV
attr interpolationmode none
attr recordingmode vector(count)
attr source packetSentToUpper
attr title "packets passed up, count"
1007	568909 12 0 0 0 0 1 0 0 0 0
vector 1008 WSN_EnergyEfficient.sensorNode11.udp droppedPkWrongPort:vector(count) ETV
attr interpolationmode none
attr recordingmode vector(count)
attr source packetDropReasonIsNoPortFound(packetDropped)
attr title "packets dropped (wrong port), count"
1008	568921 12 0 0 0 0 1 0 0 0 0
vector 1009 WSN_EnergyEfficient.sensorNode11.udp droppedPkBadChecksum:vector(count) ETV
attr interpolationmode none
attr recordingmode vector(count)
attr source packetDropReasonIsIncorrectlyReceived(packetDropped)
attr title "packets dropped (checksum error), count"
1009	568933 12 0 0 0 0 1 0 0 0 0
vector 1013 WSN_EnergyEfficient.sensorNode11.app[0] pingTxSeq:vector ETV
attr interpolationmode none
attr recordingmode vector
attr title "ping tx seq"
1013	568945 56 1824 3562 4.731957470067 9.109569400213 2 0 1 1 1
vector 1017 WSN_EnergyEfficient.sensorNode11.app[1] packetSent:vector(packetBytes) ETV
attr interpolationmode none
attr recordingmode vector(packetBytes)
attr source packetSent
attr title "packets sent, packetBytes"
1017	569001 59 3812 5869 9.736004227307 14.794765191488 2 32 32 64 2048
vector 1020 WSN_EnergyEfficient.sensorNode12.energyStorage powerConsumption:vector ETV
attr interpolationmode sample-hold
attr recordingmode vector
attr source powerConsumptionChanged
attr title "Power consumption"
attr unit W
1020	569060 124 0 17771 0 45.000000000001 7 0 0.002 0.002 4e-06
vector 1022 WSN_EnergyEfficient.sensorNode12.energyStorage residualEnergyCapacity:vector ETV
attr interpolationmode linear
attr recordingmode vector
attr source residualEnergyCapacityChanged
attr title "Residual energy capacity"
attr unit J
1022	569184 15966 0 56214 0 200 417 0.059999999999998 0.15 59.409941014948 8.6228980715496
vector 1027 WSN_EnergyEfficient.sensorNode12.wlan[0].mac.dcf.channelAccess.pendingQueue queueLength:vector ETV
attr autoWarmupFilter false
attr interpolationmode sample-hold
attr recordingmode vector
attr source "warmup(atomic(constant0(packetPushEnded) + count(packetPushStarted) - count(packetPulled) - count(packetRemoved) - count(packetDropped)))"
attr title "queue length"
attr unit pk
1027	585150 60 0 0 0 0 5 0 0 0 0
vector 1028 WSN_EnergyEfficient.sensorNode12.wlan[0].mac.dcf.channelAccess.pendingQueue queueBitLength:vector ETV
attr autoWarmupFilter false
attr interpolationmode sample-hold
attr recordingmode vector
attr source "warmup(atomic(constant0(packetPushEnded) + sum(packetLength(packetPushStarted)) - sum(packetLength(packetPulled)) - sum(packetLength(packetRemoved)) - sum(packetLength(packetDropped))))"
attr title "queue bit length"
attr unit b
1028	585210 60 0 0 0 0 5 0 0 0 0
vector 1039 WSN_EnergyEfficient.sensorNode12.wlan[0].mac.dcf.channelAccess.inProgressFrames queueLength:vector ETV
attr autoWarmupFilter false
attr interpolationmode sample-hold
attr recordingmode vector
attr source "warmup(count(packetEnqueued) - count(packetDequeued))"
attr title "queue length"
1039	585270 24 0 0 0 0 2 0 0 0 0
vector 1041 WSN_EnergyEfficient.sensorNode12.wlan[0].mac.dcf.channelAccess.contention backoffActive:vector ETV
attr autoWarmupFilter false
attr interpolationmode sample-hold
attr recordingmode vector
attr source warmup(count(backoffStarted)-count(backoffStopped))
attr title "backoff active"
1041	585294 24 0 0 0 0 2 0 0 0 0
vector 1042 WSN_EnergyEfficient.sensorNode12.wlan[0].mac.dcf.channelAccess.contention stateChanged:vector ETV
attr enum IDLE,DEFER,IFS_AND_BACKOFF
attr interpolationmode none
attr recordingmode vector
attr title "contention state changed"
attr type enum
1042	585318 84 0 17771 0 45.000000000001 4 0 0 0 0
vector 1044 WSN_EnergyEfficient.sensorNode12.wlan[0].mac.dcf.recoveryProcedure contentionWindowChanged:vector ETV
attr interpolationmode sample-hold
attr recordingmode vector
attr title "contention window"
1044	585402 13 0 0 0 0 1 31 31 31 961
vector 1061 WSN_EnergyEfficient.sensorNode12.wlan[0].mac.dcf frameSequenceActive:vector ETV
attr autoWarmupFilter false
attr interpolationmode sample-hold
attr recordingmode vector
attr source warmup(count(frameSequenceStarted)-count(frameSequenceFinished))
attr title "frame sequence active"
1061	585415 24 0 0 0 0 2 0 0 0 0
vector 1075 WSN_EnergyEfficient.sensorNode12.wlan[0].radio.energyConsumer powerConsumption:vector ETV
attr interpolationmode sample-hold
attr recordingmode vector
attr source powerConsumptionChanged
attr title "Power consumption"
attr unit W
1075	585439 112 0 17771 0 45.000000000001 6 0 0.002 0.002 4e-06
vector 1076 WSN_EnergyEfficient.sensorNode12.wlan[0].radio radioMode:vector ETV
attr interpolationmode sample-hold
attr recordingmode vector
attr source radioModeChanged
attr title "Radio mode"
1076	585551 66 0 17771 0 45.000000000001 4 0 2 2 4
vector 1077 WSN_EnergyEfficient.sensorNode12.wlan[0].radio receptionState:vector ETV
attr interpolationmode sample-hold
attr recordingmode vector
attr source receptionStateChanged
attr title "Radio reception state"
1077	585617 42 0 17771 0 45.000000000001 2 0 1 1 1
vector 1079 WSN_EnergyEfficient.sensorNode12.wlan[0].radio radioChannel:vector ETV
attr interpolationmode sample-hold
attr recordingmode vector
attr source radioChannelChanged
attr title "Radio channel"
1079	585659 12 0 0 0 0 1 0 0 0 0
vector 1086 WSN_EnergyEfficient.sensorNode12.ipv4.ip packetDropNoRouteFound:vector(packetBytes) ETV
attr interpolationmode none
attr recordingmode vector(packetBytes)
attr source packetDropReasonIsNoRouteFound(packetDropped)
attr title "packet drop: no route found, packetBytes"
[...]
vector 1262 WSN_EnergyEfficient.sensorNode14.udp passedUpPk:vector(count) ETV
attr interpolationmode none
attr recordingmode vector(count)
attr source packetSentToUpper
attr title "packets passed up, count"
1262	619944 12 0 0 0 0 1 0 0 0 0
vector 1263 WSN_EnergyEfficient.sensorNode14.udp droppedPkWrongPort:vector(count) ETV
attr interpolationmode none
attr recordingmode vector(count)
attr source packetDropReasonIsNoPortFound(packetDropped)
attr title "packets dropped (wrong port), count"
1263	619956 12 0 0 0 0 1 0 0 0 0
vector 1264 WSN_EnergyEfficient.sensorNode14.udp droppedPkBadChecksum:vector(count) ETV
attr interpolationmode none
attr recordingmode vector(count)
attr source packetDropReasonIsIncorrectlyReceived(packetDropped)
attr title "packets dropped (checksum error), count"
1264	619968 12 0 0 0 0 1 0 0 0 0
vector 1268 WSN_EnergyEfficient.sensorNode14.app[0] pingTxSeq:vector ETV
attr interpolationmode none
attr recordingmode vector
attr title "ping tx seq"
1268	619980 144 1139 10084 3.000892469659 25.666820433229 5 0 4 10 30
vector 1272 WSN_EnergyEfficient.sensorNode14.app[1] packetSent:vector(packetBytes) ETV
attr interpolationmode none
attr recordingmode vector(packetBytes)
attr source packetSent
attr title "packets sent, packetBytes"
1272	620124 61 4375 12814 11.169339986518 32.629164182242 2 32 32 64 2048
vector 1279 WSN_EnergyEfficient.accessPoint0.wlan[0].agent sentRequest:vector ETV
attr recordingmode vector
attr title "sent requests"
1279	620185 24246 11 56184 0.183919038554 199.933919038554 800 1 1 800 800
vector 1281 WSN_EnergyEfficient.accessPoint0.wlan[0].agent dropConfirm:vector ETV
attr recordingmode vector
attr title "dropped confirms"
1281	644431 24220 103 56184 0.433919038554 199.933919038554 799 1 1 799 799
vector 1282 WSN_EnergyEfficient.accessPoint0.wlan[0].mac.dcf.channelAccess.pendingQueue queueLength:vector ETV
attr autoWarmupFilter false
attr interpolationmode sample-hold
attr recordingmode vector
attr source "warmup(atomic(constant0(packetPushEnded) + count(packetPushStarted) - count(packetPulled) - count(packetRemoved) - count(packetDropped)))"
attr title "queue length"
attr unit pk
1282	668651 48498 0 56155 0 199.783919038554 1603 0 1 799 799
vector 1283 WSN_EnergyEfficient.accessPoint0.wlan[0].mac.dcf.channelAccess.pendingQueue queueBitLength:vector ETV
attr autoWarmupFilter false
attr interpolationmode sample-hold
attr recordingmode vector
attr source "warmup(atomic(constant0(packetPushEnded) + sum(packetLength(packetPushStarted)) - sum(packetLength(packetPulled)) - sum(packetLength(packetRemoved)) - sum(packetLength(packetDropped))))"
attr title "queue bit length"
attr unit b
1283	717149 50096 0 56155 0 199.783919038554 1603 0 256 204544 52363264
vector 1284 WSN_EnergyEfficient.accessPoint0.wlan[0].mac.dcf.channelAccess.pendingQueue queueingTime:vector ETV
attr interpolationmode none
attr recordingmode vector
attr source queueingTime(packetPulled)
attr title "queueing times"
attr unit s
1284	767245 24219 59 56155 0.283919038554 199.783919038554 799 0 0 0 0
vector 1285 WSN_EnergyEfficient.accessPoint0.wlan[0].mac.dcf.channelAccess.pendingQueue incomingPacketLengths:vector ETV
attr interpolationmode none
attr recordingmode vector
attr source packetLength(packetPushStarted)
attr title "incoming packet lengths"
attr unit b
1285	791464 25817 57 56153 0.283919038554 199.783919038554 799 256 256 204544 52363264
vector 1286 WSN_EnergyEfficient.accessPoint0.wlan[0].mac.dcf.channelAccess.pendingQueue incomingDataRate:vector ETV
attr interpolationmode linear
attr recordingmode vector
attr source throughput(packetPushStarted)
attr title "incoming datarate"
attr unit bps
1286	817281 55627 9835 56214 25.033919038554 200 1751 -146.31407332968 2560 1789293.6859267 4580987807.8081
vector 1287 WSN_EnergyEfficient.accessPoint0.wlan[0].mac.dcf.channelAccess.pendingQueue outgoingPacketLengths:vector ETV
attr interpolationmode none
attr recordingmode vector
attr source packetLength(packetPulled)
attr title "outgoing packet lengths"
attr unit b
1287	872908 25817 59 56155 0.283919038554 199.783919038554 799 256 256 204544 52363264
vector 1288 WSN_EnergyEfficient.accessPoint0.wlan[0].mac.dcf.channelAccess.pendingQueue outgoingDataRate:vector ETV
attr interpolationmode linear
attr recordingmode vector
attr source throughput(packetPulled)
attr title "outgoing datarate"
attr unit bps
1288	898725 55627 9837 56214 25.033919038554 200 1751 -146.31407332968 2560 1789293.6859267 4580987807.8081
vector 1293 WSN_EnergyEfficient.accessPoint0.wlan[0].mac.dcf.channelAccess.inProgressFrames queueingTime:vector ETV
attr interpolationmode none
attr recordingmode vector
attr source queueingTime(packetDequeued)
attr title "queueing times"
1293	954352 29013 78 56174 0.283957038554 199.783957038554 799 3.8e-05 3.8e-05 0.030362 1.153756e-06
vector 1294 WSN_EnergyEfficient.accessPoint0.wlan[0].mac.dcf.channelAccess.inProgressFrames queueLength:vector ETV
attr autoWarmupFilter false
attr interpolationmode sample-hold
attr recordingmode vector
attr source "warmup(count(packetEnqueued) - count(packetDequeued))"
attr title "queue length"
1294	983365 48462 0 56174 0 199.783957038554 1600 0 1 799 799
vector 1295 WSN_EnergyEfficient.accessPoint0.wlan[0].mac.dcf.channelAccess.contention backoffPeriodGenerated:vector ETV
attr interpolationmode none
attr recordingmode vector
attr title "backoff periods"
1295	1031827 24748 57 56153 0.283919038554 199.783919038554 799 0 31 11860 241336
vector 1296 WSN_EnergyEfficient.accessPoint0.wlan[0].mac.dcf.channelAccess.contention backoffActive:vector ETV
attr autoWarmupFilter false
attr interpolationmode sample-hold
attr recordingmode vector
attr source warmup(count(backoffStarted)-count(backoffStopped))
attr title "backoff active"
1296	1056575 48462 0 56154 0 199.783919038554 1600 0 1 799 799
vector 1297 WSN_EnergyEfficient.accessPoint0.wlan[0].mac.dcf.channelAccess.contention stateChanged:vector ETV
attr enum IDLE,DEFER,IFS_AND_BACKOFF
attr interpolationmode none
attr recordingmode vector
attr title "contention state changed"
attr type enum
1297	1105037 193776 0 56175 0 199.783957038554 6394 0 2 3196 6392
vector 1299 WSN_EnergyEfficient.accessPoint0.wlan[0].mac.dcf.recoveryProcedure contentionWindowChanged:vector ETV
attr interpolationmode sample-hold
attr recordingmode vector
attr title "contention window"
1299	1298813 13 0 0 0 0 1 31 31 31 961
vector 1300 WSN_EnergyEfficient.accessPoint0.wlan[0].mac.dcf packetSentToPeer:vector(packetBytes) ETV
attr interpolationmode none
attr recordingmode vector(packetBytes)
attr title "packets sent, packetBytes"
1300	1298826 25018 78 56174 0.283957038554 199.783957038554 799 32 32 25568 818176
vector 1302 WSN_EnergyEfficient.accessPoint0.wlan[0].mac.dcf packetSentToPeerMulticast:vector(packetBytes) ETV
attr interpolationmode none
attr recordingmode vector(packetBytes)
attr source ieee80211Multicast(packetSentToPeer)
attr title "packets sent: multicast, packetBytes"
1302	1323844 25018 78 56174 0.283957038554 199.783957038554 799 32 32 25568 818176
vector 1303 WSN_EnergyEfficient.accessPoint0.wlan[0].mac.dcf packetSentToPeerBroadcast:vector(packetBytes) ETV
attr interpolationmode none
attr recordingmode vector(packetBytes)
attr source ieee80211Broadcast(packetSentToPeer)
attr title "packets sent: broadcast , packetBytes"
1303	1348862 25018 78 56174 0.283957038554 199.783957038554 799 32 32 25568 818176
vector 1305 WSN_EnergyEfficient.accessPoint0.wlan[0].mac.dcf packetSentToPeerWithoutRetry:vector(packetBytes) ETV
attr interpolationmode none
attr recordingmode vector(packetBytes)
attr source ieee80211NotRetry(packetSentToPeer)
attr title "packets sent: without retry, packetBytes"
1305	1373880 25018 78 56174 0.283957038554 199.783957038554 799 32 32 25568 818176
vector 1316 WSN_EnergyEfficient.accessPoint0.wlan[0].mac.dcf frameSequenceActive:vector ETV
attr autoWarmupFilter false
attr interpolationmode sample-hold
attr recordingmode vector
attr source warmup(count(frameSequenceStarted)-count(frameSequenceFinished))
attr title "frame sequence active"
1316	1398898 48462 0 56174 0 199.783957038554 1600 0 1 799 799
vector 1317 WSN_EnergyEfficient.accessPoint0.wlan[0].mac.dcf datarateSelected:vector ETV
attr interpolationmode none
attr recordingmode vector
attr title "datarates selected"
1317	1447360 29812 59 56155 0.283919038554 199.783919038554 799 24000000 24000000 19176000000 4.60224e+17
vector 1320 WSN_EnergyEfficient.accessPoint0.wlan[0].mac packetSentToLower:vector(packetBytes) ETV
attr interpolationmode none
attr recordingmode vector(packetBytes)
attr title "packets sent to lower layer, packetBytes"
1320	1477172 25018 59 56155 0.283919038554 199.783919038554 799 32 32 25568 818176
vector 1330 WSN_EnergyEfficient.accessPoint0.wlan[0].radio radioMode:vector ETV
attr interpolationmode sample-hold
attr recordingmode vector
attr source radioModeChanged
attr title "Radio mode"
1330	1502190 48474 0 56175 0 199.783957038554 1601 0 3 3997 10391
vector 1331 WSN_EnergyEfficient.accessPoint0.wlan[0].radio receptionState:vector ETV
attr interpolationmode sample-hold
attr recordingmode vector
attr source receptionStateChanged
attr title "Radio reception state"
1331	1550664 48450 0 56175 0 199.783957038554 1599 0 1 800 800
vector 1332 WSN_EnergyEfficient.accessPoint0.wlan[0].radio transmissionState:vector ETV
attr interpolationmode sample-hold
attr recordingmode vector
attr source transmissionStateChanged
attr title "Radio transmission state"
1332	1599114 96876 60 56175 0.283919038554 199.783957038554 3196 0 2 3196 4794
vector 1333 WSN_EnergyEfficient.accessPoint0.wlan[0].radio radioChannel:vector ETV
attr interpolationmode sample-hold
attr recordingmode vector
attr source radioChannelChanged
attr title "Radio channel"
1333	1695990 24258 0 56187 0 199.933919038554 801 0 0 0 0
vector 1346 WSN_EnergyEfficient.accessPoint0.udp passedUpPk:vector(count) ETV
attr interpolationmode none
attr recordingmode vector(count)
attr source packetSentToUpper
attr title "packets passed up, count"
1346	1720248 12 0 0 0 0 1 0 0 0 0
vector 1347 WSN_EnergyEfficient.accessPoint0.udp droppedPkWrongPort:vector(count) ETV
attr interpolationmode none
attr recordingmode vector(count)
attr source packetDropReasonIsNoPortFound(packetDropped)
attr title "packets dropped (wrong port), count"
1347	1720260 12 0 0 0 0 1 0 0 0 0
vector 1348 WSN_EnergyEfficient.accessPoint0.udp droppedPkBadChecksum:vector(count) ETV
attr interpolationmode none
attr recordingmode vector(count)
attr source packetDropReasonIsIncorrectlyReceived(packetDropped)
attr title "packets dropped (checksum error), count"
1348	1720272 12 0 0 0 0 1 0 0 0 0
vector 1357 WSN_EnergyEfficient.accessPoint1.wlan[0].agent sentRequest:vector ETV
attr recordingmode vector
attr title "sent requests"
1357	1720284 24244 7 56179 0.131109585799 199.881109585799 800 1 1 800 800
vector 1359 WSN_EnergyEfficient.accessPoint1.wlan[0].agent dropConfirm:vector ETV
attr recordingmode vector
attr title "dropped confirms"
1359	1744528 24219 98 56179 0.381109585799 199.881109585799 799 1 1 799 799
vector 1360 WSN_EnergyEfficient.accessPoint1.wlan[0].mac.dcf.channelAccess.pendingQueue queueLength:vector ETV
attr autoWarmupFilter false
attr interpolationmode sample-hold
attr recordingmode vector
attr source "warmup(atomic(constant0(packetPushEnded) + count(packetPushStarted) - count(packetPulled) - count(packetRemoved) - count(packetDropped)))"
attr title "queue length"
attr unit pk
1360	1768747 48552 0 56191 0 199.981109585799 1605 0 1 800 800
vector 1361 WSN_EnergyEfficient.accessPoint1.wlan[0].mac.dcf.channelAccess.pendingQueue queueBitLength:vector ETV
attr autoWarmupFilter false
attr interpolationmode sample-hold
attr recordingmode vector
attr source "warmup(atomic(constant0(packetPushEnded) + sum(packetLength(packetPushStarted)) - sum(packetLength(packetPulled)) - sum(packetLength(packetRemoved)) - sum(packetLength(packetDropped))))"
attr title "queue bit length"
attr unit b
1361	1817299 50152 0 56191 0 199.981109585799 1605 0 256 204800 52428800
vector 1362 WSN_EnergyEfficient.accessPoint1.wlan[0].mac.dcf.channelAccess.pendingQueue queueingTime:vector ETV
attr interpolationmode none
attr recordingmode vector
attr source queueingTime(packetPulled)
attr title "queueing times"
attr unit s
1362	1867451 24246 18 56191 0.231109585799 199.981109585799 800 0 0 0 0
vector 1363 WSN_EnergyEfficient.accessPoint1.wlan[0].mac.dcf.channelAccess.pendingQueue incomingPacketLengths:vector ETV
attr interpolationmode none
attr recordingmode vector
attr source packetLength(packetPushStarted)
attr title "incoming packet lengths"
attr unit b
1363	1891697 25846 16 56189 0.231109585799 199.981109585799 800 256 256 204800 52428800
vector 1364 WSN_EnergyEfficient.accessPoint1.wlan[0].mac.dcf.channelAccess.pendingQueue incomingDataRate:vector ETV
attr interpolationmode linear
attr recordingmode vector
attr source throughput(packetPushStarted)
attr title "incoming datarate"
attr unit bps
1364	1917543 55668 9794 56214 24.981109585799 200 1752 -146.26992514588 13551.846840206 1802845.5769151 4764640347.6714
vector 1365 WSN_EnergyEfficient.accessPoint1.wlan[0].mac.dcf.channelAccess.pendingQueue outgoingPacketLengths:vector ETV
attr interpolationmode none
attr recordingmode vector
attr source packetLength(packetPulled)
attr title "outgoing packet lengths"
attr unit b
1365	1973211 25846 18 56191 0.231109585799 199.981109585799 800 256 256 204800 52428800
vector 1366 WSN_EnergyEfficient.accessPoint1.wlan[0].mac.dcf.channelAccess.pendingQueue outgoingDataRate:vector ETV
attr interpolationmode linear
attr recordingmode vector
attr source throughput(packetPulled)
attr title "outgoing datarate"
attr unit bps
1366	1999057 55668 9796 56214 24.981109585799 200 1752 -146.26992514588 13551.846840206 1802845.5769151 4764640347.6714
vector 1371 WSN_EnergyEfficient.accessPoint1.wlan[0].mac.dcf.channelAccess.inProgressFrames queueingTime:vector ETV
attr interpolationmode none
attr recordingmode vector
attr source queueingTime(packetDequeued)
attr title "queueing times"
1371	2054725 29048 37 56210 0.231147585799 199.981147585799 800 3.8e-05 3.8e-05 0.0304 1.1552e-06
vector 1372 WSN_EnergyEfficient.accessPoint1.wlan[0].mac.dcf.channelAccess.inProgressFrames queueLength:vector ETV
attr autoWarmupFilter false
attr interpolationmode sample-hold
attr recordingmode vector
attr source "warmup(count(packetEnqueued) - count(packetDequeued))"
attr title "queue length"
1372	2083773 48518 0 56210 0 199.981147585799 1602 0 1 800 800
vector 1373 WSN_EnergyEfficient.accessPoint1.wlan[0].mac.dcf.channelAccess.contention backoffPeriodGenerated:vector ETV
attr interpolationmode none
attr recordingmode vector
attr title "backoff periods"
1373	2132291 24795 16 56189 0.231109585799 199.981109585799 800 0 31 12500 266046
vector 1374 WSN_EnergyEfficient.accessPoint1.wlan[0].mac.dcf.channelAccess.contention backoffActive:vector ETV
attr autoWarmupFilter false
attr interpolationmode sample-hold
attr recordingmode vector
attr source warmup(count(backoffStarted)-count(backoffStopped))
attr title "backoff active"
1374	2157086 48516 0 56190 0 199.981109585799 1602 0 1 800 800
vector 1375 WSN_EnergyEfficient.accessPoint1.wlan[0].mac.dcf.channelAccess.contention stateChanged:vector ETV
attr enum IDLE,DEFER,IFS_AND_BACKOFF
attr interpolationmode none
attr recordingmode vector
attr title "contention state changed"
attr type enum
1375	2205602 193996 0 56211 0 199.981147585799 6402 0 2 3200 6400
vector 1377 WSN_EnergyEfficient.accessPoint1.wlan[0].mac.dcf.recoveryProcedure contentionWindowChanged:vector ETV
attr interpolationmode sample-hold
attr recordingmode vector
attr title "contention window"
1377	2399598 13 0 0 0 0 1 31 31 31 961
vector 1378 WSN_EnergyEfficient.accessPoint1.wlan[0].mac.dcf packetSentToPeer:vector(packetBytes) ETV
attr interpolationmode none
attr recordingmode vector(packetBytes)
attr title "packets sent, packetBytes"
1378	2399611 25048 37 56210 0.231147585799 199.981147585799 800 32 32 25600 819200
vector 1380 WSN_EnergyEfficient.accessPoint1.wlan[0].mac.dcf packetSentToPeerMulticast:vector(packetBytes) ETV
attr interpolationmode none
attr recordingmode vector(packetBytes)
attr source ieee80211Multicast(packetSentToPeer)
attr title "packets sent: multicast, packetBytes"
1380	2424659 25048 37 56210 0.231147585799 199.981147585799 800 32 32 25600 819200
vector 1381 WSN_EnergyEfficient.accessPoint1.wlan[0].mac.dcf packetSentToPeerBroadcast:vector(packetBytes) ETV
attr interpolationmode none
attr recordingmode vector(packetBytes)
attr source ieee80211Broadcast(packetSentToPeer)
attr title "packets sent: broadcast , packetBytes"
1381	2449707 25048 37 56210 0.231147585799 199.981147585799 800 32 32 25600 819200
vector 1383 WSN_EnergyEfficient.accessPoint1.wlan[0].mac.dcf packetSentToPeerWithoutRetry:vector(packetBytes) ETV
attr interpolationmode none
attr recordingmode vector(packetBytes)
attr source ieee80211NotRetry(packetSentToPeer)
attr title "packets sent: without retry, packetBytes"
1383	2474755 25048 37 56210 0.231147585799 199.981147585799 800 32 32 25600 819200
vector 1394 WSN_EnergyEfficient.accessPoint1.wlan[0].mac.dcf frameSequenceActive:vector ETV
attr autoWarmupFilter false
attr interpolationmode sample-hold
attr recordingmode vector
attr source warmup(count(frameSequenceStarted)-count(frameSequenceFinished))
attr title "frame sequence active"
1394	2499803 48518 0 56210 0 199.981147585799 1602 0 1 800 800
vector 1395 WSN_EnergyEfficient.accessPoint1.wlan[0].mac.dcf datarateSelected:vector ETV
attr interpolationmode none
attr recordingmode vector
attr title "datarates selected"
1395	2548321 29846 18 56191 0.231109585799 199.981109585799 800 24000000 24000000 19200000000 4.608e+17
vector 1398 WSN_EnergyEfficient.accessPoint1.wlan[0].mac packetSentToLower:vector(packetBytes) ETV
attr interpolationmode none
attr recordingmode vector(packetBytes)
attr title "packets sent to lower layer, packetBytes"
1398	2578167 25046 18 56191 0.231109585799 199.981109585799 800 32 32 25600 819200
vector 1408 WSN_EnergyEfficient.accessPoint1.wlan[0].radio radioMode:vector ETV
attr interpolationmode sample-hold
attr recordingmode vector
attr source radioModeChanged
attr title "Radio mode"
1408	2603213 48530 0 56211 0 199.981147585799 1603 0 3 4002 10404
vector 1409 WSN_EnergyEfficient.accessPoint1.wlan[0].radio receptionState:vector ETV
attr interpolationmode sample-hold
attr recordingmode vector
attr source receptionStateChanged
attr title "Radio reception state"
1409	2651743 48506 0 56211 0 199.981147585799 1601 0 1 801 801
vector 1410 WSN_EnergyEfficient.accessPoint1.wlan[0].radio transmissionState:vector ETV
attr interpolationmode sample-hold
attr recordingmode vector
attr source transmissionStateChanged
attr title "Radio transmission state"
1410	2700249 96988 19 56211 0.231109585799 199.981147585799 3200 0 2 3200 4800
vector 1411 WSN_EnergyEfficient.accessPoint1.wlan[0].radio radioChannel:vector ETV
attr interpolationmode sample-hold
attr recordingmode vector
attr source radioChannelChanged
attr title "Radio channel"
1411	2797237 24258 0 56182 0 199.881109585799 801 0 0 0 0
vector 1424 WSN_EnergyEfficient.accessPoint1.udp passedUpPk:vector(count) ETV
attr interpolationmode none
attr recordingmode vector(count)
attr source packetSentToUpper
attr title "packets passed up, count"
1424	2821495 12 0 0 0 0 1 0 0 0 0
vector 1425 WSN_EnergyEfficient.accessPoint1.udp droppedPkWrongPort:vector(count) ETV
attr interpolationmode none
attr recordingmode vector(count)
attr source packetDropReasonIsNoPortFound(packetDropped)
attr title "packets dropped (wrong port), count"
1425	2821507 12 0 0 0 0 1 0 0 0 0
vector 1426 WSN_EnergyEfficient.accessPoint1.udp droppedPkBadChecksum:vector(count) ETV
attr interpolationmode none
attr recordingmode vector(count)
attr source packetDropReasonIsIncorrectlyReceived(packetDropped)
attr title "packets dropped (checksum error), count"
1426	2821519 14 0 0 0 0 1 0 0 0 0
