file 2821533 1751390701                                         
version 3
run Common-0-20250701-23:24:39-22088
attr configname Common
attr datetime 20250701-23:24:39
attr datetimef 20250701-232439
attr experiment Common
attr inifile omnetpp.ini
attr iterationvars ""
attr iterationvarsd ""
attr iterationvarsf ""
attr measurement ""
attr network WSN_EnergyEfficient
attr processid 22088
attr repetition 0
attr replication #0
attr resultdir results
attr runnumber 0
attr seedset 0
config image-path ../../inet4.5/images
config **.radioMedium.backgroundNoise.power -110dBm
config *.configurator.addStaticRoutes false
config *.configurator.addDefaultRoutes false
config *.configurator.addSubnetRoutes false
config *.configurator.optimizeRoutes false
config *.sensorNode*.numApps 2
config *.sensorNode*.app[0].typename PingApp
config *.sensorNode*.app[0].destAddr "\"accessPoint0\""
config *.sensorNode*.app[0].startTime "uniform(1s, 10s)"
config *.sensorNode*.app[0].stopTime 190s
config *.sensorNode*.app[0].sendInterval exponential(20s)
config *.sensorNode*.app[0].packetSize 64B
config *.sensorNode*.app[0].printPing true
config *.sensorNode*.app[1].typename UdpBasicApp
config *.sensorNode*.app[1].destAddresses "\"accessPoint0\""
config *.sensorNode*.app[1].destPort 5000
config *.sensorNode*.app[1].messageLength 32B
config *.sensorNode*.app[1].sendInterval exponential(25s)
config *.sensorNode*.app[1].startTime "uniform(5s, 15s)"
config *.sensorNode*.app[1].stopTime 190s
config *.accessPoint*.numApps 1
config *.accessPoint*.hasStatus true
config *.accessPoint*.app[0].typename UdpSink
config *.accessPoint*.app[0].localPort 5000
config *.sensorNode*.wlan[0].radio.displayCommunicationRange false
config *.accessPoint*.wlan[0].radio.displayCommunicationRange false
config *.radioMedium.carrierFrequency 2.4GHz
config *.radioMedium.bandwidth 250kbps
config network WSN_EnergyEfficient
config sim-time-limit 200s
config *.visualizer.energyStorageVisualizer.displayEnergyStorages true
config *.visualizer.dataLinkVisualizer.displayLinks true
config *.visualizer.dataLinkVisualizer.packetFilter "\"*\""
config *.visualizer.networkRouteVisualizer.displayRoutes true
config *.visualizer.networkRouteVisualizer.packetFilter "\"*\""
config *.visualizer.networkRouteVisualizer.lineColor "\"blue\""
config *.visualizer.physicalLinkVisualizer.displayLinks true
config *.visualizer.mobilityVisualizer.displayMobility true
config *.visualizer.mobilityVisualizer.displayMovementTrails true
config *.sensorNode*.hasStatus true
config *.sensorNode*.energyStorage.typename SimpleEpEnergyStorage
config *.sensorNode*.wlan[0].radio.energyConsumer.typename StateBasedEpEnergyConsumer
config *.sensorNode*.energyManagement.typename SimpleEpEnergyManagement
config *.sensorNode*.energyStorage.nominalCapacity 0.15J
config *.sensorNode*.energyStorage.initialCapacity 0.15J
config *.sensorNode*.energyStorage.printCapacityStep 0.0015J
config *.sensorNode*.energyManagement.nodeShutdownCapacity 0.06J
config *.sensorNode*.energyManagement.nodeStartCapacity 0.09J
config *.sensorNode*.mobility.typename StationaryMobility
config *.sensorNode*.mobility.initFromDisplayString true
config *.accessPoint*.mobility.typename StationaryMobility
config *.accessPoint*.mobility.initFromDisplayString true

vector 0 WSN_EnergyEfficient.sensorNode0.energyStorage powerConsumption:vector ETV
attr interpolationmode sample-hold
attr recordingmode vector
attr source powerConsumptionChanged
attr title "Power consumption"
attr unit W
vector 1 WSN_EnergyEfficient.sensorNode0.energyStorage powerGeneration:vector ETV
attr interpolationmode sample-hold
attr recordingmode vector
attr source powerGenerationChanged
attr title "Power generation"
attr unit W
vector 2 WSN_EnergyEfficient.sensorNode0.energyStorage residualEnergyCapacity:vector ETV
attr interpolationmode linear
attr recordingmode vector
attr source residualEnergyCapacityChanged
attr title "Residual energy capacity"
attr unit J
vector 3 WSN_EnergyEfficient.sensorNode0.lo[0].lo rcvdPkFromHl:vector(packetBytes) ETV
attr interpolationmode none
attr recordingmode vector(packetBytes)
attr source packetReceivedFromUpper
attr title "packets received from higher layer, packetBytes"
vector 4 WSN_EnergyEfficient.sensorNode0.lo[0].lo passedUpPk:vector(packetBytes) ETV
attr interpolationmode none
attr recordingmode vector(packetBytes)
attr source packetSentToUpper
attr title "packets passed to higher layer, packetBytes"
vector 5 WSN_EnergyEfficient.sensorNode0.lo[0] packetDropInterfaceDown:vector(packetBytes) ETV
attr interpolationmode none
attr recordingmode vector(packetBytes)
attr source packetDropReasonIsInterfaceDown(packetDropped)
attr title "packet drops: interface down, packetBytes"
vector 6 WSN_EnergyEfficient.sensorNode0.lo[0] packetDropNoCarrier:vector(packetBytes) ETV
attr interpolationmode none
attr recordingmode vector(packetBytes)
attr source packetDropReasonIsNoCarrier(packetDropped)
attr title "packet drops: no carrier, packetBytes"
vector 7 WSN_EnergyEfficient.sensorNode0.wlan[0].mac.dcf.channelAccess.pendingQueue queueLength:vector ETV
attr autoWarmupFilter false
attr interpolationmode sample-hold
attr recordingmode vector
attr source "warmup(atomic(constant0(packetPushEnded) + count(packetPushStarted) - count(packetPulled) - count(packetRemoved) - count(packetDropped)))"
attr title "queue length"
attr unit pk
vector 8 WSN_EnergyEfficient.sensorNode0.wlan[0].mac.dcf.channelAccess.pendingQueue queueBitLength:vector ETV
attr autoWarmupFilter false
attr interpolationmode sample-hold
attr recordingmode vector
attr source "warmup(atomic(constant0(packetPushEnded) + sum(packetLength(packetPushStarted)) - sum(packetLength(packetPulled)) - sum(packetLength(packetRemoved)) - sum(packetLength(packetDropped))))"
attr title "queue bit length"
attr unit b
vector 9 WSN_EnergyEfficient.sensorNode0.wlan[0].mac.dcf.channelAccess.pendingQueue queueingTime:vector ETV
attr interpolationmode none
attr recordingmode vector
attr source queueingTime(packetPulled)
attr title "queueing times"
attr unit s
vector 10 WSN_EnergyEfficient.sensorNode0.wlan[0].mac.dcf.channelAccess.pendingQueue incomingPacketLengths:vector ETV
attr interpolationmode none
attr recordingmode vector
attr source packetLength(packetPushStarted)
attr title "incoming packet lengths"
attr unit b
vector 11 WSN_EnergyEfficient.sensorNode0.wlan[0].mac.dcf.channelAccess.pendingQueue incomingDataRate:vector ETV
attr interpolationmode linear
attr recordingmode vector
attr source throughput(packetPushStarted)
attr title "incoming datarate"
attr unit bps
vector 12 WSN_EnergyEfficient.sensorNode0.wlan[0].mac.dcf.channelAccess.pendingQueue outgoingPacketLengths:vector ETV
attr interpolationmode none
attr recordingmode vector
attr source packetLength(packetPulled)
attr title "outgoing packet lengths"
attr unit b
vector 13 WSN_EnergyEfficient.sensorNode0.wlan[0].mac.dcf.channelAccess.pendingQueue outgoingDataRate:vector ETV
attr interpolationmode linear
attr recordingmode vector
attr source throughput(packetPulled)
attr title "outgoing datarate"
attr unit bps
vector 14 WSN_EnergyEfficient.sensorNode0.wlan[0].mac.dcf.channelAccess.pendingQueue droppedPacketLengthsQueueOverflow:vector ETV
attr interpolationmode none
attr recordingmode vector
attr source packetLength(packetDropReasonIsQueueOverflow(packetDropped))
attr title "dropped packet lengths: queue overflow"
attr unit b
vector 15 WSN_EnergyEfficient.sensorNode0.wlan[0].mac.dcf.channelAccess.pendingQueue flowQueueingTime:vector ETV
attr interpolationmode none
attr recordingmode vector
attr source queueingTime(demuxFlow(packetPulled))
attr title "flow queueing times"
attr unit s
vector 16 WSN_EnergyEfficient.sensorNode0.wlan[0].mac.dcf.channelAccess.pendingQueue flowIncomingDataRate:vector ETV
attr interpolationmode linear
attr recordingmode vector
attr source throughput(flowPacketLength(demuxFlow(packetPushStarted)))
attr title "flow specific incoming data rate"
attr unit bps
vector 17 WSN_EnergyEfficient.sensorNode0.wlan[0].mac.dcf.channelAccess.pendingQueue flowOutgoingDataRate:vector ETV
attr interpolationmode linear
attr recordingmode vector
attr source throughput(flowPacketLength(demuxFlow(packetPulled)))
attr title "flow specific outgoing data rate"
attr unit bps
vector 18 WSN_EnergyEfficient.sensorNode0.wlan[0].mac.dcf.channelAccess.inProgressFrames queueingTime:vector ETV
attr interpolationmode none
attr recordingmode vector
attr source queueingTime(packetDequeued)
attr title "queueing times"
vector 19 WSN_EnergyEfficient.sensorNode0.wlan[0].mac.dcf.channelAccess.inProgressFrames queueLength:vector ETV
attr autoWarmupFilter false
attr interpolationmode sample-hold
attr recordingmode vector
attr source "warmup(count(packetEnqueued) - count(packetDequeued))"
attr title "queue length"
vector 20 WSN_EnergyEfficient.sensorNode0.wlan[0].mac.dcf.channelAccess.contention backoffPeriodGenerated:vector ETV
attr interpolationmode none
attr recordingmode vector
attr title "backoff periods"
vector 21 WSN_EnergyEfficient.sensorNode0.wlan[0].mac.dcf.channelAccess.contention backoffActive:vector ETV
attr autoWarmupFilter false
attr interpolationmode sample-hold
attr recordingmode vector
attr source warmup(count(backoffStarted)-count(backoffStopped))
attr title "backoff active"
vector 22 WSN_EnergyEfficient.sensorNode0.wlan[0].mac.dcf.channelAccess.contention stateChanged:vector ETV
attr enum IDLE,DEFER,IFS_AND_BACKOFF
attr interpolationmode none
attr recordingmode vector
attr title "contention state changed"
attr type enum
vector 23 WSN_EnergyEfficient.sensorNode0.wlan[0].mac.dcf.recipientMacDataService packetDropDuplicateDetected:vector(packetBytes) ETV
attr interpolationmode none
attr recordingmode vector(packetBytes)
attr source packetDropReasonIsDuplicateDetected(packetDropped)
attr title "packet drops: duplicate detected, packetBytes"
vector 24 WSN_EnergyEfficient.sensorNode0.wlan[0].mac.dcf.recoveryProcedure contentionWindowChanged:vector ETV
attr interpolationmode sample-hold
attr recordingmode vector
attr title "contention window"
vector 25 WSN_EnergyEfficient.sensorNode0.wlan[0].mac.dcf packetSentToPeer:vector(packetBytes) ETV
attr interpolationmode none
attr recordingmode vector(packetBytes)
attr title "packets sent, packetBytes"
vector 26 WSN_EnergyEfficient.sensorNode0.wlan[0].mac.dcf packetSentToPeerUnicast:vector(packetBytes) ETV
attr interpolationmode none
attr recordingmode vector(packetBytes)
attr source ieee80211Unicast(packetSentToPeer)
attr title "packets sent: unicast, packetBytes"
vector 27 WSN_EnergyEfficient.sensorNode0.wlan[0].mac.dcf packetSentToPeerMulticast:vector(packetBytes) ETV
attr interpolationmode none
attr recordingmode vector(packetBytes)
attr source ieee80211Multicast(packetSentToPeer)
attr title "packets sent: multicast, packetBytes"
vector 28 WSN_EnergyEfficient.sensorNode0.wlan[0].mac.dcf packetSentToPeerBroadcast:vector(packetBytes) ETV
attr interpolationmode none
attr recordingmode vector(packetBytes)
attr source ieee80211Broadcast(packetSentToPeer)
attr title "packets sent: broadcast , packetBytes"
vector 29 WSN_EnergyEfficient.sensorNode0.wlan[0].mac.dcf packetSentToPeerWithRetry:vector(packetBytes) ETV
attr interpolationmode none
attr recordingmode vector(packetBytes)
attr source ieee80211Retry(packetSentToPeer)
attr title "packets sent: with retry, packetBytes"
vector 30 WSN_EnergyEfficient.sensorNode0.wlan[0].mac.dcf packetSentToPeerWithoutRetry:vector(packetBytes) ETV
attr interpolationmode none
attr recordingmode vector(packetBytes)
attr source ieee80211NotRetry(packetSentToPeer)
attr title "packets sent: without retry, packetBytes"
vector 31 WSN_EnergyEfficient.sensorNode0.wlan[0].mac.dcf packetReceivedFromPeer:vector(packetBytes) ETV
attr interpolationmode none
attr recordingmode vector(packetBytes)
attr title "packets received, packetBytes"
vector 32 WSN_EnergyEfficient.sensorNode0.wlan[0].mac.dcf packetReceivedFromPeerUnicast:vector(packetBytes) ETV
attr interpolationmode none
attr recordingmode vector(packetBytes)
attr source ieee80211Unicast(packetReceivedFromPeer)
attr title "packets received: unicast, packetBytes"
vector 33 WSN_EnergyEfficient.sensorNode0.wlan[0].mac.dcf packetReceivedFromPeerMulticast:vector(packetBytes) ETV
attr interpolationmode none
attr recordingmode vector(packetBytes)
attr source ieee80211Multicast(packetReceivedFromPeer)
attr title "packets received: multicast, packetBytes"
vector 34 WSN_EnergyEfficient.sensorNode0.wlan[0].mac.dcf packetReceivedFromPeerBroadcast:vector(packetBytes) ETV
attr interpolationmode none
attr recordingmode vector(packetBytes)
attr source ieee80211Broadcast(packetReceivedFromPeer)
attr title "packets received: broadcast, packetBytes"
vector 35 WSN_EnergyEfficient.sensorNode0.wlan[0].mac.dcf packetReceivedFromPeerWithRetry:vector(packetBytes) ETV
attr interpolationmode none
attr recordingmode vector(packetBytes)
attr source ieee80211Retry(packetReceivedFromPeer)
attr title "packets received: with retry, packetBytes"
vector 36 WSN_EnergyEfficient.sensorNode0.wlan[0].mac.dcf packetReceivedFromPeerWithoutRetry:vector(packetBytes) ETV
attr interpolationmode none
attr recordingmode vector(packetBytes)
attr source ieee80211NotRetry(packetReceivedFromPeer)
attr title "packets received: without retry, packetBytes"
vector 37 WSN_EnergyEfficient.sensorNode0.wlan[0].mac.dcf packetDrop:vector(packetBytes) ETV
attr interpolationmode none
attr recordingmode vector(packetBytes)
attr source packetDropped
attr title "packet drops, packetBytes"
vector 38 WSN_EnergyEfficient.sensorNode0.wlan[0].mac.dcf packetDropNotAddressedToUs:vector(packetBytes) ETV
attr interpolationmode none
attr recordingmode vector(packetBytes)
attr source packetDropReasonIsNotAddressedToUs(packetDropped)
attr title "packet drops: not addressed to us, packetBytes"
vector 39 WSN_EnergyEfficient.sensorNode0.wlan[0].mac.dcf packetDropQueueOverflow:vector(packetBytes) ETV
attr interpolationmode none
attr recordingmode vector(packetBytes)
attr source packetDropReasonIsQueueOverflow(packetDropped)
attr title "packet drops: queue overflow, packetBytes"
vector 40 WSN_EnergyEfficient.sensorNode0.wlan[0].mac.dcf packetDropRetryLimitReached:vector(packetBytes) ETV
attr interpolationmode none
attr recordingmode vector(packetBytes)
attr source packetDropReasonIsRetryLimitReached(packetDropped)
attr title "packet drops: retry limit reached, packetBytes"
vector 41 WSN_EnergyEfficient.sensorNode0.wlan[0].mac.dcf frameSequenceActive:vector ETV
attr autoWarmupFilter false
attr interpolationmode sample-hold
attr recordingmode vector
attr source warmup(count(frameSequenceStarted)-count(frameSequenceFinished))
attr title "frame sequence active"
vector 42 WSN_EnergyEfficient.sensorNode0.wlan[0].mac.dcf datarateSelected:vector ETV
attr interpolationmode none
attr recordingmode vector
attr title "datarates selected"
vector 43 WSN_EnergyEfficient.sensorNode0.wlan[0].mac.rx nav:vector ETV
attr interpolationmode linear
attr recordingmode vector
attr source navChanged
attr title "network allocation vector"
vector 44 WSN_EnergyEfficient.sensorNode0.wlan[0].mac packetSentToUpper:vector(packetBytes) ETV
attr interpolationmode none
attr recordingmode vector(packetBytes)
attr title "packets sent to upper layer, packetBytes"
vector 45 WSN_EnergyEfficient.sensorNode0.wlan[0].mac packetSentToLower:vector(packetBytes) ETV
attr interpolationmode none
attr recordingmode vector(packetBytes)
attr title "packets sent to lower layer, packetBytes"
vector 46 WSN_EnergyEfficient.sensorNode0.wlan[0].mac packetReceivedFromUpper:vector(packetBytes) ETV
attr interpolationmode none
attr recordingmode vector(packetBytes)
attr title "packets received from upper layer, packetBytes"
vector 47 WSN_EnergyEfficient.sensorNode0.wlan[0].mac packetReceivedFromLower:vector(packetBytes) ETV
attr interpolationmode none
attr recordingmode vector(packetBytes)
attr title "packets received from lower layer, packetBytes"
vector 48 WSN_EnergyEfficient.sensorNode0.wlan[0].mac packetDrop:vector(packetBytes) ETV
attr interpolationmode none
attr recordingmode vector(packetBytes)
attr source packetDropped
attr title "packet drops, packetBytes"
vector 49 WSN_EnergyEfficient.sensorNode0.wlan[0].mac packetDropIncorrectlyReceived:vector(packetBytes) ETV
attr interpolationmode none
attr recordingmode vector(packetBytes)
attr source packetDropReasonIsIncorrectlyReceived(packetDropped)
attr title "packet drops: incorrectly received, packetBytes"
vector 50 WSN_EnergyEfficient.sensorNode0.wlan[0].mac packetDropNotAddressedToUs:vector(packetBytes) ETV
attr interpolationmode none
attr recordingmode vector(packetBytes)
attr source packetDropReasonIsNotAddressedToUs(packetDropped)
attr title "packet drops: not addressed to us, packetBytes"
vector 51 WSN_EnergyEfficient.sensorNode0.wlan[0].mac packetDropQueueOverflow:vector(packetBytes) ETV
attr interpolationmode none
attr recordingmode vector(packetBytes)
attr source packetDropReasonIsQueueOverflow(packetDropped)
attr title "packet drops: queue overflow, packetBytes"
vector 52 WSN_EnergyEfficient.sensorNode0.wlan[0].mac packetDropRetryLimitReached:vector(packetBytes) ETV
attr interpolationmode none
attr recordingmode vector(packetBytes)
attr source packetDropReasonIsRetryLimitReached(packetDropped)
attr title "packet drops: retry limit reached, packetBytes"
vector 53 WSN_EnergyEfficient.sensorNode0.wlan[0].mac packetDropDuplicateDetected:vector(packetBytes) ETV
attr interpolationmode none
attr recordingmode vector(packetBytes)
attr source packetDropReasonIsDuplicateDetected(packetDropped)
attr title "packet drops: duplicate detected, packetBytes"
vector 54 WSN_EnergyEfficient.sensorNode0.wlan[0].mac packetDropOther:vector(packetBytes) ETV
attr interpolationmode none
attr recordingmode vector(packetBytes)
attr source packetDropReasonIsOther(packetDropped)
attr title "packet drops: other, packetBytes"
vector 55 WSN_EnergyEfficient.sensorNode0.wlan[0].radio.energyConsumer powerConsumption:vector ETV
attr interpolationmode sample-hold
attr recordingmode vector
attr source powerConsumptionChanged
attr title "Power consumption"
attr unit W
vector 56 WSN_EnergyEfficient.sensorNode0.wlan[0].radio radioMode:vector ETV
attr interpolationmode sample-hold
attr recordingmode vector
attr source radioModeChanged
attr title "Radio mode"
vector 57 WSN_EnergyEfficient.sensorNode0.wlan[0].radio receptionState:vector ETV
attr interpolationmode sample-hold
attr recordingmode vector
attr source receptionStateChanged
attr title "Radio reception state"
vector 58 WSN_EnergyEfficient.sensorNode0.wlan[0].radio transmissionState:vector ETV
attr interpolationmode sample-hold
attr recordingmode vector
attr source transmissionStateChanged
attr title "Radio transmission state"
vector 59 WSN_EnergyEfficient.sensorNode0.wlan[0].radio radioChannel:vector ETV
attr interpolationmode sample-hold
attr recordingmode vector
attr source radioChannelChanged
attr title "Radio channel"
vector 60 WSN_EnergyEfficient.sensorNode0.wlan[0] packetDropInterfaceDown:vector(packetBytes) ETV
attr interpolationmode none
attr recordingmode vector(packetBytes)
attr source packetDropReasonIsInterfaceDown(packetDropped)
attr title "packet drops: interface down, packetBytes"
vector 61 WSN_EnergyEfficient.sensorNode0.wlan[0] packetDropNoCarrier:vector(packetBytes) ETV
attr interpolationmode none
attr recordingmode vector(packetBytes)
attr source packetDropReasonIsNoCarrier(packetDropped)
attr title "packet drops: no carrier, packetBytes"
vector 62 WSN_EnergyEfficient.sensorNode0.ipv4.ip packetDropAddressResolutionFailed:vector(packetBytes) ETV
attr interpolationmode none
attr recordingmode vector(packetBytes)
attr source packetDropReasonIsAddressResolutionFailed(packetDropped)
attr title "packet drop: address resolution failed, packetBytes"
vector 63 WSN_EnergyEfficient.sensorNode0.ipv4.ip packetDropHopLimitReached:vector(packetBytes) ETV
attr interpolationmode none
attr recordingmode vector(packetBytes)
attr source packetDropReasonIsHopLimitReached(packetDropped)
attr title "packet drop: hop limit reached, packetBytes"
vector 64 WSN_EnergyEfficient.sensorNode0.ipv4.ip packetDropForwardingDisabled:vector(packetBytes) ETV
attr interpolationmode none
attr recordingmode vector(packetBytes)
attr source packetDropReasonIsForwardingDisabled(packetDropped)
attr title "packet drop: forwarding disabled, packetBytes"
vector 65 WSN_EnergyEfficient.sensorNode0.ipv4.ip packetDropNoInterfaceFound:vector(packetBytes) ETV
attr interpolationmode none
attr recordingmode vector(packetBytes)
attr source packetDropReasonIsNoInterfaceFound(packetDropped)
attr title "packet drop: no interface found, packetBytes"
vector 66 WSN_EnergyEfficient.sensorNode0.ipv4.ip packetDropNoRouteFound:vector(packetBytes) ETV
attr interpolationmode none
attr recordingmode vector(packetBytes)
attr source packetDropReasonIsNoRouteFound(packetDropped)
attr title "packet drop: no route found, packetBytes"
vector 67 WSN_EnergyEfficient.sensorNode0.ipv4.ip packetDropUndefined:vector(packetBytes) ETV
attr interpolationmode none
attr recordingmode vector(packetBytes)
attr source packetDropReasonIsUndefined(packetDropped)
attr title "packet drop: undefined, packetBytes"
vector 68 WSN_EnergyEfficient.sensorNode0.ipv4.arp arpRequestSent:vector(packetBytes) ETV
attr recordingmode vector(packetBytes)
attr source arpRequestSent
attr title "ARP request sent, packetBytes"
vector 69 WSN_EnergyEfficient.sensorNode0.ipv4.arp arpReplySent:vector(packetBytes) ETV
attr recordingmode vector(packetBytes)
attr source arpReplySent
attr title "ARP replies sent, packetBytes"
vector 70 WSN_EnergyEfficient.sensorNode0.udp packetSent:vector(packetBytes) ETV
attr interpolationmode none
attr recordingmode vector(packetBytes)
attr source packetSent
attr title "packets sent, packetBytes"
vector 71 WSN_EnergyEfficient.sensorNode0.udp packetReceived:vector(packetBytes) ETV
attr interpolationmode none
attr recordingmode vector(packetBytes)
attr source packetReceived
attr title "packets received, packetBytes"
vector 72 WSN_EnergyEfficient.sensorNode0.udp passedUpPk:vector(count) ETV
attr interpolationmode none
attr recordingmode vector(count)
attr source packetSentToUpper
attr title "packets passed up, count"
vector 73 WSN_EnergyEfficient.sensorNode0.udp droppedPkWrongPort:vector(count) ETV
attr interpolationmode none
attr recordingmode vector(count)
attr source packetDropReasonIsNoPortFound(packetDropped)
attr title "packets dropped (wrong port), count"
vector 74 WSN_EnergyEfficient.sensorNode0.udp droppedPkBadChecksum:vector(count) ETV
attr interpolationmode none
attr recordingmode vector(count)
attr source packetDropReasonIsIncorrectlyReceived(packetDropped)
attr title "packets dropped (checksum error), count"
vector 75 WSN_EnergyEfficient.sensorNode0.app[0] rtt:vector ETV
attr interpolationmode none
attr recordingmode vector
attr title "ping round-trip time"
attr unit s
vector 76 WSN_EnergyEfficient.sensorNode0.app[0] numLost:vector ETV
attr interpolationmode none
attr recordingmode vector
attr title "pings lost"
vector 77 WSN_EnergyEfficient.sensorNode0.app[0] numOutOfOrderArrivals:vector ETV
attr interpolationmode none
attr recordingmode vector
attr title "ping out-of-order arrivals"
vector 78 WSN_EnergyEfficient.sensorNode0.app[0] pingTxSeq:vector ETV
attr interpolationmode none
attr recordingmode vector
attr title "ping tx seq"
vector 79 WSN_EnergyEfficient.sensorNode0.app[0] pingRxSeq:vector ETV
attr interpolationmode none
attr recordingmode vector
attr title "ping rx seq"
vector 80 WSN_EnergyEfficient.sensorNode0.app[1] packetReceived:vector(packetBytes) ETV
attr interpolationmode none
attr recordingmode vector(packetBytes)
attr source packetReceived
attr title "packets received, packetBytes"
vector 81 WSN_EnergyEfficient.sensorNode0.app[1] throughput:vector ETV
attr recordingmode vector
attr source throughput(packetReceived)
attr title throughput
attr unit bps
vector 82 WSN_EnergyEfficient.sensorNode0.app[1] packetSent:vector(packetBytes) ETV
attr interpolationmode none
attr recordingmode vector(packetBytes)
attr source packetSent
attr title "packets sent, packetBytes"
vector 83 WSN_EnergyEfficient.sensorNode0.app[1] rcvdPkLifetime:vector ETV
attr interpolationmode none
attr recordingmode vector
attr source dataAge(packetReceived)
attr title "received packet lifetime"
attr unit s
vector 84 WSN_EnergyEfficient.sensorNode0.app[1] rcvdPkSeqNo:vector ETV
attr interpolationmode none
attr recordingmode vector
attr source appPkSeqNo(packetReceived)
attr title "received packet sequence number"
vector 85 WSN_EnergyEfficient.sensorNode1.energyStorage powerConsumption:vector ETV
attr interpolationmode sample-hold
attr recordingmode vector
attr source powerConsumptionChanged
attr title "Power consumption"
attr unit W
vector 86 WSN_EnergyEfficient.sensorNode1.energyStorage powerGeneration:vector ETV
attr interpolationmode sample-hold
attr recordingmode vector
attr source powerGenerationChanged
attr title "Power generation"
attr unit W
vector 87 WSN_EnergyEfficient.sensorNode1.energyStorage residualEnergyCapacity:vector ETV
attr interpolationmode linear
attr recordingmode vector
attr source residualEnergyCapacityChanged
attr title "Residual energy capacity"
attr unit J
vector 88 WSN_EnergyEfficient.sensorNode1.lo[0].lo rcvdPkFromHl:vector(packetBytes) ETV
attr interpolationmode none
attr recordingmode vector(packetBytes)
attr source packetReceivedFromUpper
attr title "packets received from higher layer, packetBytes"
vector 89 WSN_EnergyEfficient.sensorNode1.lo[0].lo passedUpPk:vector(packetBytes) ETV
attr interpolationmode none
attr recordingmode vector(packetBytes)
attr source packetSentToUpper
attr title "packets passed to higher layer, packetBytes"
vector 90 WSN_EnergyEfficient.sensorNode1.lo[0] packetDropInterfaceDown:vector(packetBytes) ETV
attr interpolationmode none
attr recordingmode vector(packetBytes)
attr source packetDropReasonIsInterfaceDown(packetDropped)
attr title "packet drops: interface down, packetBytes"
vector 91 WSN_EnergyEfficient.sensorNode1.lo[0] packetDropNoCarrier:vector(packetBytes) ETV
attr interpolationmode none
attr recordingmode vector(packetBytes)
attr source packetDropReasonIsNoCarrier(packetDropped)
attr title "packet drops: no carrier, packetBytes"
vector 92 WSN_EnergyEfficient.sensorNode1.wlan[0].mac.dcf.channelAccess.pendingQueue queueLength:vector ETV
attr autoWarmupFilter false
attr interpolationmode sample-hold
attr recordingmode vector
attr source "warmup(atomic(constant0(packetPushEnded) + count(packetPushStarted) - count(packetPulled) - count(packetRemoved) - count(packetDropped)))"
attr title "queue length"
attr unit pk
vector 93 WSN_EnergyEfficient.sensorNode1.wlan[0].mac.dcf.channelAccess.pendingQueue queueBitLength:vector ETV
attr autoWarmupFilter false
attr interpolationmode sample-hold
attr recordingmode vector
attr source "warmup(atomic(constant0(packetPushEnded) + sum(packetLength(packetPushStarted)) - sum(packetLength(packetPulled)) - sum(packetLength(packetRemoved)) - sum(packetLength(packetDropped))))"
attr title "queue bit length"
attr unit b
vector 94 WSN_EnergyEfficient.sensorNode1.wlan[0].mac.dcf.channelAccess.pendingQueue queueingTime:vector ETV
attr interpolationmode none
attr recordingmode vector
attr source queueingTime(packetPulled)
attr title "queueing times"
attr unit s
vector 95 WSN_EnergyEfficient.sensorNode1.wlan[0].mac.dcf.channelAccess.pendingQueue incomingPacketLengths:vector ETV
attr interpolationmode none
attr recordingmode vector
attr source packetLength(packetPushStarted)
attr title "incoming packet lengths"
attr unit b
vector 96 WSN_EnergyEfficient.sensorNode1.wlan[0].mac.dcf.channelAccess.pendingQueue incomingDataRate:vector ETV
attr interpolationmode linear
attr recordingmode vector
attr source throughput(packetPushStarted)
attr title "incoming datarate"
attr unit bps
vector 97 WSN_EnergyEfficient.sensorNode1.wlan[0].mac.dcf.channelAccess.pendingQueue outgoingPacketLengths:vector ETV
attr interpolationmode none
attr recordingmode vector
attr source packetLength(packetPulled)
attr title "outgoing packet lengths"
attr unit b
vector 98 WSN_EnergyEfficient.sensorNode1.wlan[0].mac.dcf.channelAccess.pendingQueue outgoingDataRate:vector ETV
attr interpolationmode linear
attr recordingmode vector
attr source throughput(packetPulled)
attr title "outgoing datarate"
attr unit bps
vector 99 WSN_EnergyEfficient.sensorNode1.wlan[0].mac.dcf.channelAccess.pendingQueue droppedPacketLengthsQueueOverflow:vector ETV
attr interpolationmode none
attr recordingmode vector
attr source packetLength(packetDropReasonIsQueueOverflow(packetDropped))
attr title "dropped packet lengths: queue overflow"
attr unit b
vector 100 WSN_EnergyEfficient.sensorNode1.wlan[0].mac.dcf.channelAccess.pendingQueue flowQueueingTime:vector ETV
attr interpolationmode none
attr recordingmode vector
attr source queueingTime(demuxFlow(packetPulled))
attr title "flow queueing times"
attr unit s
vector 101 WSN_EnergyEfficient.sensorNode1.wlan[0].mac.dcf.channelAccess.pendingQueue flowIncomingDataRate:vector ETV
attr interpolationmode linear
attr recordingmode vector
attr source throughput(flowPacketLength(demuxFlow(packetPushStarted)))
attr title "flow specific incoming data rate"
attr unit bps
vector 102 WSN_EnergyEfficient.sensorNode1.wlan[0].mac.dcf.channelAccess.pendingQueue flowOutgoingDataRate:vector ETV
attr interpolationmode linear
attr recordingmode vector
attr source throughput(flowPacketLength(demuxFlow(packetPulled)))
attr title "flow specific outgoing data rate"
attr unit bps
vector 103 WSN_EnergyEfficient.sensorNode1.wlan[0].mac.dcf.channelAccess.inProgressFrames queueingTime:vector ETV
attr interpolationmode none
attr recordingmode vector
attr source queueingTime(packetDequeued)
attr title "queueing times"
vector 104 WSN_EnergyEfficient.sensorNode1.wlan[0].mac.dcf.channelAccess.inProgressFrames queueLength:vector ETV
attr autoWarmupFilter false
attr interpolationmode sample-hold
attr recordingmode vector
attr source "warmup(count(packetEnqueued) - count(packetDequeued))"
attr title "queue length"
vector 105 WSN_EnergyEfficient.sensorNode1.wlan[0].mac.dcf.channelAccess.contention backoffPeriodGenerated:vector ETV
attr interpolationmode none
attr recordingmode vector
attr title "backoff periods"
vector 106 WSN_EnergyEfficient.sensorNode1.wlan[0].mac.dcf.channelAccess.contention backoffActive:vector ETV
attr autoWarmupFilter false
attr interpolationmode sample-hold
attr recordingmode vector
attr source warmup(count(backoffStarted)-count(backoffStopped))
attr title "backoff active"
vector 107 WSN_EnergyEfficient.sensorNode1.wlan[0].mac.dcf.channelAccess.contention stateChanged:vector ETV
attr enum IDLE,DEFER,IFS_AND_BACKOFF
attr interpolationmode none
attr recordingmode vector
attr title "contention state changed"
attr type enum
vector 108 WSN_EnergyEfficient.sensorNode1.wlan[0].mac.dcf.recipientMacDataService packetDropDuplicateDetected:vector(packetBytes) ETV
attr interpolationmode none
attr recordingmode vector(packetBytes)
attr source packetDropReasonIsDuplicateDetected(packetDropped)
attr title "packet drops: duplicate detected, packetBytes"
vector 109 WSN_EnergyEfficient.sensorNode1.wlan[0].mac.dcf.recoveryProcedure contentionWindowChanged:vector ETV
attr interpolationmode sample-hold
attr recordingmode vector
attr title "contention window"
vector 110 WSN_EnergyEfficient.sensorNode1.wlan[0].mac.dcf packetSentToPeer:vector(packetBytes) ETV
attr interpolationmode none
attr recordingmode vector(packetBytes)
attr title "packets sent, packetBytes"
vector 111 WSN_EnergyEfficient.sensorNode1.wlan[0].mac.dcf packetSentToPeerUnicast:vector(packetBytes) ETV
attr interpolationmode none
attr recordingmode vector(packetBytes)
attr source ieee80211Unicast(packetSentToPeer)
attr title "packets sent: unicast, packetBytes"
vector 112 WSN_EnergyEfficient.sensorNode1.wlan[0].mac.dcf packetSentToPeerMulticast:vector(packetBytes) ETV
attr interpolationmode none
attr recordingmode vector(packetBytes)
attr source ieee80211Multicast(packetSentToPeer)
attr title "packets sent: multicast, packetBytes"
vector 113 WSN_EnergyEfficient.sensorNode1.wlan[0].mac.dcf packetSentToPeerBroadcast:vector(packetBytes) ETV
attr interpolationmode none
attr recordingmode vector(packetBytes)
attr source ieee80211Broadcast(packetSentToPeer)
attr title "packets sent: broadcast , packetBytes"
vector 114 WSN_EnergyEfficient.sensorNode1.wlan[0].mac.dcf packetSentToPeerWithRetry:vector(packetBytes) ETV
attr interpolationmode none
attr recordingmode vector(packetBytes)
attr source ieee80211Retry(packetSentToPeer)
attr title "packets sent: with retry, packetBytes"
vector 115 WSN_EnergyEfficient.sensorNode1.wlan[0].mac.dcf packetSentToPeerWithoutRetry:vector(packetBytes) ETV
attr interpolationmode none
attr recordingmode vector(packetBytes)
attr source ieee80211NotRetry(packetSentToPeer)
attr title "packets sent: without retry, packetBytes"
vector 116 WSN_EnergyEfficient.sensorNode1.wlan[0].mac.dcf packetReceivedFromPeer:vector(packetBytes) ETV
attr interpolationmode none
attr recordingmode vector(packetBytes)
attr title "packets received, packetBytes"
vector 117 WSN_EnergyEfficient.sensorNode1.wlan[0].mac.dcf packetReceivedFromPeerUnicast:vector(packetBytes) ETV
attr interpolationmode none
attr recordingmode vector(packetBytes)
attr source ieee80211Unicast(packetReceivedFromPeer)
attr title "packets received: unicast, packetBytes"
vector 118 WSN_EnergyEfficient.sensorNode1.wlan[0].mac.dcf packetReceivedFromPeerMulticast:vector(packetBytes) ETV
attr interpolationmode none
attr recordingmode vector(packetBytes)
attr source ieee80211Multicast(packetReceivedFromPeer)
attr title "packets received: multicast, packetBytes"
vector 119 WSN_EnergyEfficient.sensorNode1.wlan[0].mac.dcf packetReceivedFromPeerBroadcast:vector(packetBytes) ETV
attr interpolationmode none
attr recordingmode vector(packetBytes)
attr source ieee80211Broadcast(packetReceivedFromPeer)
attr title "packets received: broadcast, packetBytes"
vector 120 WSN_EnergyEfficient.sensorNode1.wlan[0].mac.dcf packetReceivedFromPeerWithRetry:vector(packetBytes) ETV
attr interpolationmode none
attr recordingmode vector(packetBytes)
attr source ieee80211Retry(packetReceivedFromPeer)
attr title "packets received: with retry, packetBytes"
vector 121 WSN_EnergyEfficient.sensorNode1.wlan[0].mac.dcf packetReceivedFromPeerWithoutRetry:vector(packetBytes) ETV
attr interpolationmode none
attr recordingmode vector(packetBytes)
attr source ieee80211NotRetry(packetReceivedFromPeer)
attr title "packets received: without retry, packetBytes"
vector 122 WSN_EnergyEfficient.sensorNode1.wlan[0].mac.dcf packetDrop:vector(packetBytes) ETV
attr interpolationmode none
attr recordingmode vector(packetBytes)
attr source packetDropped
attr title "packet drops, packetBytes"
vector 123 WSN_EnergyEfficient.sensorNode1.wlan[0].mac.dcf packetDropNotAddressedToUs:vector(packetBytes) ETV
attr interpolationmode none
attr recordingmode vector(packetBytes)
attr source packetDropReasonIsNotAddressedToUs(packetDropped)
attr title "packet drops: not addressed to us, packetBytes"
vector 124 WSN_EnergyEfficient.sensorNode1.wlan[0].mac.dcf packetDropQueueOverflow:vector(packetBytes) ETV
attr interpolationmode none
attr recordingmode vector(packetBytes)
attr source packetDropReasonIsQueueOverflow(packetDropped)
attr title "packet drops: queue overflow, packetBytes"
vector 125 WSN_EnergyEfficient.sensorNode1.wlan[0].mac.dcf packetDropRetryLimitReached:vector(packetBytes) ETV
attr interpolationmode none
attr recordingmode vector(packetBytes)
attr source packetDropReasonIsRetryLimitReached(packetDropped)
attr title "packet drops: retry limit reached, packetBytes"
vector 126 WSN_EnergyEfficient.sensorNode1.wlan[0].mac.dcf frameSequenceActive:vector ETV
attr autoWarmupFilter false
attr interpolationmode sample-hold
attr recordingmode vector
attr source warmup(count(frameSequenceStarted)-count(frameSequenceFinished))
attr title "frame sequence active"
vector 127 WSN_EnergyEfficient.sensorNode1.wlan[0].mac.dcf datarateSelected:vector ETV
attr interpolationmode none
attr recordingmode vector
attr title "datarates selected"
vector 128 WSN_EnergyEfficient.sensorNode1.wlan[0].mac.rx nav:vector ETV
attr interpolationmode linear
attr recordingmode vector
attr source navChanged
attr title "network allocation vector"
vector 129 WSN_EnergyEfficient.sensorNode1.wlan[0].mac packetSentToUpper:vector(packetBytes) ETV
attr interpolationmode none
attr recordingmode vector(packetBytes)
attr title "packets sent to upper layer, packetBytes"
vector 130 WSN_EnergyEfficient.sensorNode1.wlan[0].mac packetSentToLower:vector(packetBytes) ETV
attr interpolationmode none
attr recordingmode vector(packetBytes)
attr title "packets sent to lower layer, packetBytes"
vector 131 WSN_EnergyEfficient.sensorNode1.wlan[0].mac packetReceivedFromUpper:vector(packetBytes) ETV
attr interpolationmode none
attr recordingmode vector(packetBytes)
attr title "packets received from upper layer, packetBytes"
vector 132 WSN_EnergyEfficient.sensorNode1.wlan[0].mac packetReceivedFromLower:vector(packetBytes) ETV
attr interpolationmode none
attr recordingmode vector(packetBytes)
attr title "packets received from lower layer, packetBytes"
vector 133 WSN_EnergyEfficient.sensorNode1.wlan[0].mac packetDrop:vector(packetBytes) ETV
attr interpolationmode none
attr recordingmode vector(packetBytes)
attr source packetDropped
attr title "packet drops, packetBytes"
vector 134 WSN_EnergyEfficient.sensorNode1.wlan[0].mac packetDropIncorrectlyReceived:vector(packetBytes) ETV
attr interpolationmode none
attr recordingmode vector(packetBytes)
attr source packetDropReasonIsIncorrectlyReceived(packetDropped)
attr title "packet drops: incorrectly received, packetBytes"
vector 135 WSN_EnergyEfficient.sensorNode1.wlan[0].mac packetDropNotAddressedToUs:vector(packetBytes) ETV
attr interpolationmode none
attr recordingmode vector(packetBytes)
attr source packetDropReasonIsNotAddressedToUs(packetDropped)
attr title "packet drops: not addressed to us, packetBytes"
vector 136 WSN_EnergyEfficient.sensorNode1.wlan[0].mac packetDropQueueOverflow:vector(packetBytes) ETV
attr interpolationmode none
attr recordingmode vector(packetBytes)
attr source packetDropReasonIsQueueOverflow(packetDropped)
attr title "packet drops: queue overflow, packetBytes"
vector 137 WSN_EnergyEfficient.sensorNode1.wlan[0].mac packetDropRetryLimitReached:vector(packetBytes) ETV
attr interpolationmode none
attr recordingmode vector(packetBytes)
attr source packetDropReasonIsRetryLimitReached(packetDropped)
attr title "packet drops: retry limit reached, packetBytes"
vector 138 WSN_EnergyEfficient.sensorNode1.wlan[0].mac packetDropDuplicateDetected:vector(packetBytes) ETV
attr interpolationmode none
attr recordingmode vector(packetBytes)
attr source packetDropReasonIsDuplicateDetected(packetDropped)
attr title "packet drops: duplicate detected, packetBytes"
vector 139 WSN_EnergyEfficient.sensorNode1.wlan[0].mac packetDropOther:vector(packetBytes) ETV
attr interpolationmode none
attr recordingmode vector(packetBytes)
attr source packetDropReasonIsOther(packetDropped)
attr title "packet drops: other, packetBytes"
vector 140 WSN_EnergyEfficient.sensorNode1.wlan[0].radio.energyConsumer powerConsumption:vector ETV
attr interpolationmode sample-hold
attr recordingmode vector
attr source powerConsumptionChanged
attr title "Power consumption"
attr unit W
vector 141 WSN_EnergyEfficient.sensorNode1.wlan[0].radio radioMode:vector ETV
attr interpolationmode sample-hold
attr recordingmode vector
attr source radioModeChanged
attr title "Radio mode"
vector 142 WSN_EnergyEfficient.sensorNode1.wlan[0].radio receptionState:vector ETV
attr interpolationmode sample-hold
attr recordingmode vector
attr source receptionStateChanged
attr title "Radio reception state"
vector 143 WSN_EnergyEfficient.sensorNode1.wlan[0].radio transmissionState:vector ETV
attr interpolationmode sample-hold
attr recordingmode vector
attr source transmissionStateChanged
attr title "Radio transmission state"
vector 144 WSN_EnergyEfficient.sensorNode1.wlan[0].radio radioChannel:vector ETV
attr interpolationmode sample-hold
attr recordingmode vector
attr source radioChannelChanged
attr title "Radio channel"
vector 145 WSN_EnergyEfficient.sensorNode1.wlan[0] packetDropInterfaceDown:vector(packetBytes) ETV
attr interpolationmode none
attr recordingmode vector(packetBytes)
attr source packetDropReasonIsInterfaceDown(packetDropped)
attr title "packet drops: interface down, packetBytes"
vector 146 WSN_EnergyEfficient.sensorNode1.wlan[0] packetDropNoCarrier:vector(packetBytes) ETV
attr interpolationmode none
attr recordingmode vector(packetBytes)
attr source packetDropReasonIsNoCarrier(packetDropped)
attr title "packet drops: no carrier, packetBytes"
vector 147 WSN_EnergyEfficient.sensorNode1.ipv4.ip packetDropAddressResolutionFailed:vector(packetBytes) ETV
attr interpolationmode none
attr recordingmode vector(packetBytes)
attr source packetDropReasonIsAddressResolutionFailed(packetDropped)
attr title "packet drop: address resolution failed, packetBytes"
vector 148 WSN_EnergyEfficient.sensorNode1.ipv4.ip packetDropHopLimitReached:vector(packetBytes) ETV
attr interpolationmode none
attr recordingmode vector(packetBytes)
attr source packetDropReasonIsHopLimitReached(packetDropped)
attr title "packet drop: hop limit reached, packetBytes"
vector 149 WSN_EnergyEfficient.sensorNode1.ipv4.ip packetDropForwardingDisabled:vector(packetBytes) ETV
attr interpolationmode none
attr recordingmode vector(packetBytes)
attr source packetDropReasonIsForwardingDisabled(packetDropped)
attr title "packet drop: forwarding disabled, packetBytes"
vector 150 WSN_EnergyEfficient.sensorNode1.ipv4.ip packetDropNoInterfaceFound:vector(packetBytes) ETV
attr interpolationmode none
attr recordingmode vector(packetBytes)
attr source packetDropReasonIsNoInterfaceFound(packetDropped)
attr title "packet drop: no interface found, packetBytes"
vector 151 WSN_EnergyEfficient.sensorNode1.ipv4.ip packetDropNoRouteFound:vector(packetBytes) ETV
attr interpolationmode none
attr recordingmode vector(packetBytes)
attr source packetDropReasonIsNoRouteFound(packetDropped)
attr title "packet drop: no route found, packetBytes"
vector 152 WSN_EnergyEfficient.sensorNode1.ipv4.ip packetDropUndefined:vector(packetBytes) ETV
attr interpolationmode none
attr recordingmode vector(packetBytes)
attr source packetDropReasonIsUndefined(packetDropped)
attr title "packet drop: undefined, packetBytes"
vector 153 WSN_EnergyEfficient.sensorNode1.ipv4.arp arpRequestSent:vector(packetBytes) ETV
attr recordingmode vector(packetBytes)
attr source arpRequestSent
attr title "ARP request sent, packetBytes"
vector 154 WSN_EnergyEfficient.sensorNode1.ipv4.arp arpReplySent:vector(packetBytes) ETV
attr recordingmode vector(packetBytes)
attr source arpReplySent
attr title "ARP replies sent, packetBytes"
vector 155 WSN_EnergyEfficient.sensorNode1.udp packetSent:vector(packetBytes) ETV
attr interpolationmode none
attr recordingmode vector(packetBytes)
attr source packetSent
attr title "packets sent, packetBytes"
vector 156 WSN_EnergyEfficient.sensorNode1.udp packetReceived:vector(packetBytes) ETV
attr interpolationmode none
attr recordingmode vector(packetBytes)
attr source packetReceived
attr title "packets received, packetBytes"
vector 157 WSN_EnergyEfficient.sensorNode1.udp passedUpPk:vector(count) ETV
attr interpolationmode none
attr recordingmode vector(count)
attr source packetSentToUpper
attr title "packets passed up, count"
vector 158 WSN_EnergyEfficient.sensorNode1.udp droppedPkWrongPort:vector(count) ETV
attr interpolationmode none
attr recordingmode vector(count)
attr source packetDropReasonIsNoPortFound(packetDropped)
attr title "packets dropped (wrong port), count"
vector 159 WSN_EnergyEfficient.sensorNode1.udp droppedPkBadChecksum:vector(count) ETV
attr interpolationmode none
attr recordingmode vector(count)
attr source packetDropReasonIsIncorrectlyReceived(packetDropped)
attr title "packets dropped (checksum error), count"
vector 160 WSN_EnergyEfficient.sensorNode1.app[0] rtt:vector ETV
attr interpolationmode none
attr recordingmode vector
attr title "ping round-trip time"
attr unit s
vector 161 WSN_EnergyEfficient.sensorNode1.app[0] numLost:vector ETV
attr interpolationmode none
attr recordingmode vector
attr title "pings lost"
vector 162 WSN_EnergyEfficient.sensorNode1.app[0] numOutOfOrderArrivals:vector ETV
attr interpolationmode none
attr recordingmode vector
attr title "ping out-of-order arrivals"
vector 163 WSN_EnergyEfficient.sensorNode1.app[0] pingTxSeq:vector ETV
attr interpolationmode none
attr recordingmode vector
attr title "ping tx seq"
vector 164 WSN_EnergyEfficient.sensorNode1.app[0] pingRxSeq:vector ETV
attr interpolationmode none
attr recordingmode vector
attr title "ping rx seq"
vector 165 WSN_EnergyEfficient.sensorNode1.app[1] packetReceived:vector(packetBytes) ETV
attr interpolationmode none
attr recordingmode vector(packetBytes)
attr source packetReceived
attr title "packets received, packetBytes"
vector 166 WSN_EnergyEfficient.sensorNode1.app[1] throughput:vector ETV
attr recordingmode vector
attr source throughput(packetReceived)
attr title throughput
attr unit bps
vector 167 WSN_EnergyEfficient.sensorNode1.app[1] packetSent:vector(packetBytes) ETV
attr interpolationmode none
attr recordingmode vector(packetBytes)
attr source packetSent
attr title "packets sent, packetBytes"
vector 168 WSN_EnergyEfficient.sensorNode1.app[1] rcvdPkLifetime:vector ETV
attr interpolationmode none
attr recordingmode vector
attr source dataAge(packetReceived)
attr title "received packet lifetime"
attr unit s
vector 169 WSN_EnergyEfficient.sensorNode1.app[1] rcvdPkSeqNo:vector ETV
attr interpolationmode none
attr recordingmode vector
attr source appPkSeqNo(packetReceived)
attr title "received packet sequence number"
vector 170 WSN_EnergyEfficient.sensorNode2.energyStorage powerConsumption:vector ETV
attr interpolationmode sample-hold
attr recordingmode vector
attr source powerConsumptionChanged
attr title "Power consumption"
attr unit W
vector 171 WSN_EnergyEfficient.sensorNode2.energyStorage powerGeneration:vector ETV
attr interpolationmode sample-hold
attr recordingmode vector
attr source powerGenerationChanged
attr title "Power generation"
attr unit W
vector 172 WSN_EnergyEfficient.sensorNode2.energyStorage residualEnergyCapacity:vector ETV
attr interpolationmode linear
attr recordingmode vector
attr source residualEnergyCapacityChanged
attr title "Residual energy capacity"
attr unit J
vector 173 WSN_EnergyEfficient.sensorNode2.lo[0].lo rcvdPkFromHl:vector(packetBytes) ETV
attr interpolationmode none
attr recordingmode vector(packetBytes)
attr source packetReceivedFromUpper
attr title "packets received from higher layer, packetBytes"
vector 174 WSN_EnergyEfficient.sensorNode2.lo[0].lo passedUpPk:vector(packetBytes) ETV
attr interpolationmode none
attr recordingmode vector(packetBytes)
attr source packetSentToUpper
attr title "packets passed to higher layer, packetBytes"
vector 175 WSN_EnergyEfficient.sensorNode2.lo[0] packetDropInterfaceDown:vector(packetBytes) ETV
attr interpolationmode none
attr recordingmode vector(packetBytes)
attr source packetDropReasonIsInterfaceDown(packetDropped)
attr title "packet drops: interface down, packetBytes"
vector 176 WSN_EnergyEfficient.sensorNode2.lo[0] packetDropNoCarrier:vector(packetBytes) ETV
attr interpolationmode none
attr recordingmode vector(packetBytes)
attr source packetDropReasonIsNoCarrier(packetDropped)
attr title "packet drops: no carrier, packetBytes"
vector 177 WSN_EnergyEfficient.sensorNode2.wlan[0].mac.dcf.channelAccess.pendingQueue queueLength:vector ETV
attr autoWarmupFilter false
attr interpolationmode sample-hold
attr recordingmode vector
attr source "warmup(atomic(constant0(packetPushEnded) + count(packetPushStarted) - count(packetPulled) - count(packetRemoved) - count(packetDropped)))"
attr title "queue length"
attr unit pk
vector 178 WSN_EnergyEfficient.sensorNode2.wlan[0].mac.dcf.channelAccess.pendingQueue queueBitLength:vector ETV
attr autoWarmupFilter false
attr interpolationmode sample-hold
attr recordingmode vector
attr source "warmup(atomic(constant0(packetPushEnded) + sum(packetLength(packetPushStarted)) - sum(packetLength(packetPulled)) - sum(packetLength(packetRemoved)) - sum(packetLength(packetDropped))))"
attr title "queue bit length"
attr unit b
vector 179 WSN_EnergyEfficient.sensorNode2.wlan[0].mac.dcf.channelAccess.pendingQueue queueingTime:vector ETV
attr interpolationmode none
attr recordingmode vector
attr source queueingTime(packetPulled)
attr title "queueing times"
attr unit s
vector 180 WSN_EnergyEfficient.sensorNode2.wlan[0].mac.dcf.channelAccess.pendingQueue incomingPacketLengths:vector ETV
attr interpolationmode none
attr recordingmode vector
attr source packetLength(packetPushStarted)
attr title "incoming packet lengths"
attr unit b
vector 181 WSN_EnergyEfficient.sensorNode2.wlan[0].mac.dcf.channelAccess.pendingQueue incomingDataRate:vector ETV
attr interpolationmode linear
attr recordingmode vector
attr source throughput(packetPushStarted)
attr title "incoming datarate"
attr unit bps
vector 182 WSN_EnergyEfficient.sensorNode2.wlan[0].mac.dcf.channelAccess.pendingQueue outgoingPacketLengths:vector ETV
attr interpolationmode none
attr recordingmode vector
attr source packetLength(packetPulled)
attr title "outgoing packet lengths"
attr unit b
vector 183 WSN_EnergyEfficient.sensorNode2.wlan[0].mac.dcf.channelAccess.pendingQueue outgoingDataRate:vector ETV
attr interpolationmode linear
attr recordingmode vector
attr source throughput(packetPulled)
attr title "outgoing datarate"
attr unit bps
vector 184 WSN_EnergyEfficient.sensorNode2.wlan[0].mac.dcf.channelAccess.pendingQueue droppedPacketLengthsQueueOverflow:vector ETV
attr interpolationmode none
attr recordingmode vector
attr source packetLength(packetDropReasonIsQueueOverflow(packetDropped))
attr title "dropped packet lengths: queue overflow"
attr unit b
vector 185 WSN_EnergyEfficient.sensorNode2.wlan[0].mac.dcf.channelAccess.pendingQueue flowQueueingTime:vector ETV
attr interpolationmode none
attr recordingmode vector
attr source queueingTime(demuxFlow(packetPulled))
attr title "flow queueing times"
attr unit s
vector 186 WSN_EnergyEfficient.sensorNode2.wlan[0].mac.dcf.channelAccess.pendingQueue flowIncomingDataRate:vector ETV
attr interpolationmode linear
attr recordingmode vector
attr source throughput(flowPacketLength(demuxFlow(packetPushStarted)))
attr title "flow specific incoming data rate"
attr unit bps
vector 187 WSN_EnergyEfficient.sensorNode2.wlan[0].mac.dcf.channelAccess.pendingQueue flowOutgoingDataRate:vector ETV
attr interpolationmode linear
attr recordingmode vector
attr source throughput(flowPacketLength(demuxFlow(packetPulled)))
attr title "flow specific outgoing data rate"
attr unit bps
vector 188 WSN_EnergyEfficient.sensorNode2.wlan[0].mac.dcf.channelAccess.inProgressFrames queueingTime:vector ETV
attr interpolationmode none
attr recordingmode vector
attr source queueingTime(packetDequeued)
attr title "queueing times"
vector 189 WSN_EnergyEfficient.sensorNode2.wlan[0].mac.dcf.channelAccess.inProgressFrames queueLength:vector ETV
attr autoWarmupFilter false
attr interpolationmode sample-hold
attr recordingmode vector
attr source "warmup(count(packetEnqueued) - count(packetDequeued))"
attr title "queue length"
vector 190 WSN_EnergyEfficient.sensorNode2.wlan[0].mac.dcf.channelAccess.contention backoffPeriodGenerated:vector ETV
attr interpolationmode none
attr recordingmode vector
attr title "backoff periods"
vector 191 WSN_EnergyEfficient.sensorNode2.wlan[0].mac.dcf.channelAccess.contention backoffActive:vector ETV
attr autoWarmupFilter false
attr interpolationmode sample-hold
attr recordingmode vector
attr source warmup(count(backoffStarted)-count(backoffStopped))
attr title "backoff active"
vector 192 WSN_EnergyEfficient.sensorNode2.wlan[0].mac.dcf.channelAccess.contention stateChanged:vector ETV
attr enum IDLE,DEFER,IFS_AND_BACKOFF
attr interpolationmode none
attr recordingmode vector
attr title "contention state changed"
attr type enum
vector 193 WSN_EnergyEfficient.sensorNode2.wlan[0].mac.dcf.recipientMacDataService packetDropDuplicateDetected:vector(packetBytes) ETV
attr interpolationmode none
attr recordingmode vector(packetBytes)
attr source packetDropReasonIsDuplicateDetected(packetDropped)
attr title "packet drops: duplicate detected, packetBytes"
vector 194 WSN_EnergyEfficient.sensorNode2.wlan[0].mac.dcf.recoveryProcedure contentionWindowChanged:vector ETV
attr interpolationmode sample-hold
attr recordingmode vector
attr title "contention window"
vector 195 WSN_EnergyEfficient.sensorNode2.wlan[0].mac.dcf packetSentToPeer:vector(packetBytes) ETV
attr interpolationmode none
attr recordingmode vector(packetBytes)
attr title "packets sent, packetBytes"
vector 196 WSN_EnergyEfficient.sensorNode2.wlan[0].mac.dcf packetSentToPeerUnicast:vector(packetBytes) ETV
attr interpolationmode none
attr recordingmode vector(packetBytes)
attr source ieee80211Unicast(packetSentToPeer)
attr title "packets sent: unicast, packetBytes"
vector 197 WSN_EnergyEfficient.sensorNode2.wlan[0].mac.dcf packetSentToPeerMulticast:vector(packetBytes) ETV
attr interpolationmode none
attr recordingmode vector(packetBytes)
attr source ieee80211Multicast(packetSentToPeer)
attr title "packets sent: multicast, packetBytes"
vector 198 WSN_EnergyEfficient.sensorNode2.wlan[0].mac.dcf packetSentToPeerBroadcast:vector(packetBytes) ETV
attr interpolationmode none
attr recordingmode vector(packetBytes)
attr source ieee80211Broadcast(packetSentToPeer)
attr title "packets sent: broadcast , packetBytes"
vector 199 WSN_EnergyEfficient.sensorNode2.wlan[0].mac.dcf packetSentToPeerWithRetry:vector(packetBytes) ETV
attr interpolationmode none
attr recordingmode vector(packetBytes)
attr source ieee80211Retry(packetSentToPeer)
attr title "packets sent: with retry, packetBytes"
vector 200 WSN_EnergyEfficient.sensorNode2.wlan[0].mac.dcf packetSentToPeerWithoutRetry:vector(packetBytes) ETV
attr interpolationmode none
attr recordingmode vector(packetBytes)
attr source ieee80211NotRetry(packetSentToPeer)
attr title "packets sent: without retry, packetBytes"
vector 201 WSN_EnergyEfficient.sensorNode2.wlan[0].mac.dcf packetReceivedFromPeer:vector(packetBytes) ETV
attr interpolationmode none
attr recordingmode vector(packetBytes)
attr title "packets received, packetBytes"
vector 202 WSN_EnergyEfficient.sensorNode2.wlan[0].mac.dcf packetReceivedFromPeerUnicast:vector(packetBytes) ETV
attr interpolationmode none
attr recordingmode vector(packetBytes)
attr source ieee80211Unicast(packetReceivedFromPeer)
attr title "packets received: unicast, packetBytes"
vector 203 WSN_EnergyEfficient.sensorNode2.wlan[0].mac.dcf packetReceivedFromPeerMulticast:vector(packetBytes) ETV
attr interpolationmode none
attr recordingmode vector(packetBytes)
attr source ieee80211Multicast(packetReceivedFromPeer)
attr title "packets received: multicast, packetBytes"
vector 204 WSN_EnergyEfficient.sensorNode2.wlan[0].mac.dcf packetReceivedFromPeerBroadcast:vector(packetBytes) ETV
attr interpolationmode none
attr recordingmode vector(packetBytes)
attr source ieee80211Broadcast(packetReceivedFromPeer)
attr title "packets received: broadcast, packetBytes"
vector 205 WSN_EnergyEfficient.sensorNode2.wlan[0].mac.dcf packetReceivedFromPeerWithRetry:vector(packetBytes) ETV
attr interpolationmode none
attr recordingmode vector(packetBytes)
attr source ieee80211Retry(packetReceivedFromPeer)
attr title "packets received: with retry, packetBytes"
vector 206 WSN_EnergyEfficient.sensorNode2.wlan[0].mac.dcf packetReceivedFromPeerWithoutRetry:vector(packetBytes) ETV
attr interpolationmode none
attr recordingmode vector(packetBytes)
attr source ieee80211NotRetry(packetReceivedFromPeer)
attr title "packets received: without retry, packetBytes"
vector 207 WSN_EnergyEfficient.sensorNode2.wlan[0].mac.dcf packetDrop:vector(packetBytes) ETV
attr interpolationmode none
attr recordingmode vector(packetBytes)
attr source packetDropped
attr title "packet drops, packetBytes"
vector 208 WSN_EnergyEfficient.sensorNode2.wlan[0].mac.dcf packetDropNotAddressedToUs:vector(packetBytes) ETV
attr interpolationmode none
attr recordingmode vector(packetBytes)
attr source packetDropReasonIsNotAddressedToUs(packetDropped)
attr title "packet drops: not addressed to us, packetBytes"
vector 209 WSN_EnergyEfficient.sensorNode2.wlan[0].mac.dcf packetDropQueueOverflow:vector(packetBytes) ETV
attr interpolationmode none
attr recordingmode vector(packetBytes)
attr source packetDropReasonIsQueueOverflow(packetDropped)
attr title "packet drops: queue overflow, packetBytes"
vector 210 WSN_EnergyEfficient.sensorNode2.wlan[0].mac.dcf packetDropRetryLimitReached:vector(packetBytes) ETV
attr interpolationmode none
attr recordingmode vector(packetBytes)
attr source packetDropReasonIsRetryLimitReached(packetDropped)
attr title "packet drops: retry limit reached, packetBytes"
vector 211 WSN_EnergyEfficient.sensorNode2.wlan[0].mac.dcf frameSequenceActive:vector ETV
attr autoWarmupFilter false
attr interpolationmode sample-hold
attr recordingmode vector
attr source warmup(count(frameSequenceStarted)-count(frameSequenceFinished))
attr title "frame sequence active"
vector 212 WSN_EnergyEfficient.sensorNode2.wlan[0].mac.dcf datarateSelected:vector ETV
attr interpolationmode none
attr recordingmode vector
attr title "datarates selected"
vector 213 WSN_EnergyEfficient.sensorNode2.wlan[0].mac.rx nav:vector ETV
attr interpolationmode linear
attr recordingmode vector
attr source navChanged
attr title "network allocation vector"
vector 214 WSN_EnergyEfficient.sensorNode2.wlan[0].mac packetSentToUpper:vector(packetBytes) ETV
attr interpolationmode none
attr recordingmode vector(packetBytes)
attr title "packets sent to upper layer, packetBytes"
vector 215 WSN_EnergyEfficient.sensorNode2.wlan[0].mac packetSentToLower:vector(packetBytes) ETV
attr interpolationmode none
attr recordingmode vector(packetBytes)
attr title "packets sent to lower layer, packetBytes"
vector 216 WSN_EnergyEfficient.sensorNode2.wlan[0].mac packetReceivedFromUpper:vector(packetBytes) ETV
attr interpolationmode none
attr recordingmode vector(packetBytes)
attr title "packets received from upper layer, packetBytes"
vector 217 WSN_EnergyEfficient.sensorNode2.wlan[0].mac packetReceivedFromLower:vector(packetBytes) ETV
attr interpolationmode none
attr recordingmode vector(packetBytes)
attr title "packets received from lower layer, packetBytes"
vector 218 WSN_EnergyEfficient.sensorNode2.wlan[0].mac packetDrop:vector(packetBytes) ETV
attr interpolationmode none
attr recordingmode vector(packetBytes)
attr source packetDropped
attr title "packet drops, packetBytes"
vector 219 WSN_EnergyEfficient.sensorNode2.wlan[0].mac packetDropIncorrectlyReceived:vector(packetBytes) ETV
attr interpolationmode none
attr recordingmode vector(packetBytes)
attr source packetDropReasonIsIncorrectlyReceived(packetDropped)
attr title "packet drops: incorrectly received, packetBytes"
vector 220 WSN_EnergyEfficient.sensorNode2.wlan[0].mac packetDropNotAddressedToUs:vector(packetBytes) ETV
attr interpolationmode none
attr recordingmode vector(packetBytes)
attr source packetDropReasonIsNotAddressedToUs(packetDropped)
attr title "packet drops: not addressed to us, packetBytes"
vector 221 WSN_EnergyEfficient.sensorNode2.wlan[0].mac packetDropQueueOverflow:vector(packetBytes) ETV
attr interpolationmode none
attr recordingmode vector(packetBytes)
attr source packetDropReasonIsQueueOverflow(packetDropped)
attr title "packet drops: queue overflow, packetBytes"
vector 222 WSN_EnergyEfficient.sensorNode2.wlan[0].mac packetDropRetryLimitReached:vector(packetBytes) ETV
attr interpolationmode none
attr recordingmode vector(packetBytes)
attr source packetDropReasonIsRetryLimitReached(packetDropped)
attr title "packet drops: retry limit reached, packetBytes"
vector 223 WSN_EnergyEfficient.sensorNode2.wlan[0].mac packetDropDuplicateDetected:vector(packetBytes) ETV
attr interpolationmode none
attr recordingmode vector(packetBytes)
attr source packetDropReasonIsDuplicateDetected(packetDropped)
attr title "packet drops: duplicate detected, packetBytes"
vector 224 WSN_EnergyEfficient.sensorNode2.wlan[0].mac packetDropOther:vector(packetBytes) ETV
attr interpolationmode none
attr recordingmode vector(packetBytes)
attr source packetDropReasonIsOther(packetDropped)
attr title "packet drops: other, packetBytes"
vector 225 WSN_EnergyEfficient.sensorNode2.wlan[0].radio.energyConsumer powerConsumption:vector ETV
attr interpolationmode sample-hold
attr recordingmode vector
attr source powerConsumptionChanged
attr title "Power consumption"
attr unit W
vector 226 WSN_EnergyEfficient.sensorNode2.wlan[0].radio radioMode:vector ETV
attr interpolationmode sample-hold
attr recordingmode vector
attr source radioModeChanged
attr title "Radio mode"
vector 227 WSN_EnergyEfficient.sensorNode2.wlan[0].radio receptionState:vector ETV
attr interpolationmode sample-hold
attr recordingmode vector
attr source receptionStateChanged
attr title "Radio reception state"
vector 228 WSN_EnergyEfficient.sensorNode2.wlan[0].radio transmissionState:vector ETV
attr interpolationmode sample-hold
attr recordingmode vector
attr source transmissionStateChanged
attr title "Radio transmission state"
vector 229 WSN_EnergyEfficient.sensorNode2.wlan[0].radio radioChannel:vector ETV
attr interpolationmode sample-hold
attr recordingmode vector
attr source radioChannelChanged
attr title "Radio channel"
vector 230 WSN_EnergyEfficient.sensorNode2.wlan[0] packetDropInterfaceDown:vector(packetBytes) ETV
attr interpolationmode none
attr recordingmode vector(packetBytes)
attr source packetDropReasonIsInterfaceDown(packetDropped)
attr title "packet drops: interface down, packetBytes"
vector 231 WSN_EnergyEfficient.sensorNode2.wlan[0] packetDropNoCarrier:vector(packetBytes) ETV
attr interpolationmode none
attr recordingmode vector(packetBytes)
attr source packetDropReasonIsNoCarrier(packetDropped)
attr title "packet drops: no carrier, packetBytes"
vector 232 WSN_EnergyEfficient.sensorNode2.ipv4.ip packetDropAddressResolutionFailed:vector(packetBytes) ETV
attr interpolationmode none
attr recordingmode vector(packetBytes)
attr source packetDropReasonIsAddressResolutionFailed(packetDropped)
attr title "packet drop: address resolution failed, packetBytes"
vector 233 WSN_EnergyEfficient.sensorNode2.ipv4.ip packetDropHopLimitReached:vector(packetBytes) ETV
attr interpolationmode none
attr recordingmode vector(packetBytes)
attr source packetDropReasonIsHopLimitReached(packetDropped)
attr title "packet drop: hop limit reached, packetBytes"
vector 234 WSN_EnergyEfficient.sensorNode2.ipv4.ip packetDropForwardingDisabled:vector(packetBytes) ETV
attr interpolationmode none
attr recordingmode vector(packetBytes)
attr source packetDropReasonIsForwardingDisabled(packetDropped)
attr title "packet drop: forwarding disabled, packetBytes"
vector 235 WSN_EnergyEfficient.sensorNode2.ipv4.ip packetDropNoInterfaceFound:vector(packetBytes) ETV
attr interpolationmode none
attr recordingmode vector(packetBytes)
attr source packetDropReasonIsNoInterfaceFound(packetDropped)
attr title "packet drop: no interface found, packetBytes"
vector 236 WSN_EnergyEfficient.sensorNode2.ipv4.ip packetDropNoRouteFound:vector(packetBytes) ETV
attr interpolationmode none
attr recordingmode vector(packetBytes)
attr source packetDropReasonIsNoRouteFound(packetDropped)
attr title "packet drop: no route found, packetBytes"
vector 237 WSN_EnergyEfficient.sensorNode2.ipv4.ip packetDropUndefined:vector(packetBytes) ETV
attr interpolationmode none
attr recordingmode vector(packetBytes)
attr source packetDropReasonIsUndefined(packetDropped)
attr title "packet drop: undefined, packetBytes"
vector 238 WSN_EnergyEfficient.sensorNode2.ipv4.arp arpRequestSent:vector(packetBytes) ETV
attr recordingmode vector(packetBytes)
attr source arpRequestSent
attr title "ARP request sent, packetBytes"
vector 239 WSN_EnergyEfficient.sensorNode2.ipv4.arp arpReplySent:vector(packetBytes) ETV
attr recordingmode vector(packetBytes)
attr source arpReplySent
attr title "ARP replies sent, packetBytes"
vector 240 WSN_EnergyEfficient.sensorNode2.udp packetSent:vector(packetBytes) ETV
attr interpolationmode none
attr recordingmode vector(packetBytes)
attr source packetSent
attr title "packets sent, packetBytes"
vector 241 WSN_EnergyEfficient.sensorNode2.udp packetReceived:vector(packetBytes) ETV
attr interpolationmode none
attr recordingmode vector(packetBytes)
attr source packetReceived
attr title "packets received, packetBytes"
vector 242 WSN_EnergyEfficient.sensorNode2.udp passedUpPk:vector(count) ETV
attr interpolationmode none
attr recordingmode vector(count)
attr source packetSentToUpper
attr title "packets passed up, count"
vector 243 WSN_EnergyEfficient.sensorNode2.udp droppedPkWrongPort:vector(count) ETV
attr interpolationmode none
attr recordingmode vector(count)
attr source packetDropReasonIsNoPortFound(packetDropped)
attr title "packets dropped (wrong port), count"
vector 244 WSN_EnergyEfficient.sensorNode2.udp droppedPkBadChecksum:vector(count) ETV
attr interpolationmode none
attr recordingmode vector(count)
attr source packetDropReasonIsIncorrectlyReceived(packetDropped)
attr title "packets dropped (checksum error), count"
vector 245 WSN_EnergyEfficient.sensorNode2.app[0] rtt:vector ETV
attr interpolationmode none
attr recordingmode vector
attr title "ping round-trip time"
attr unit s
vector 246 WSN_EnergyEfficient.sensorNode2.app[0] numLost:vector ETV
attr interpolationmode none
attr recordingmode vector
attr title "pings lost"
vector 247 WSN_EnergyEfficient.sensorNode2.app[0] numOutOfOrderArrivals:vector ETV
attr interpolationmode none
attr recordingmode vector
attr title "ping out-of-order arrivals"
vector 248 WSN_EnergyEfficient.sensorNode2.app[0] pingTxSeq:vector ETV
attr interpolationmode none
attr recordingmode vector
attr title "ping tx seq"
vector 249 WSN_EnergyEfficient.sensorNode2.app[0] pingRxSeq:vector ETV
attr interpolationmode none
attr recordingmode vector
attr title "ping rx seq"
vector 250 WSN_EnergyEfficient.sensorNode2.app[1] packetReceived:vector(packetBytes) ETV
attr interpolationmode none
attr recordingmode vector(packetBytes)
attr source packetReceived
attr title "packets received, packetBytes"
vector 251 WSN_EnergyEfficient.sensorNode2.app[1] throughput:vector ETV
attr recordingmode vector
attr source throughput(packetReceived)
attr title throughput
attr unit bps
vector 252 WSN_EnergyEfficient.sensorNode2.app[1] packetSent:vector(packetBytes) ETV
attr interpolationmode none
attr recordingmode vector(packetBytes)
attr source packetSent
attr title "packets sent, packetBytes"
vector 253 WSN_EnergyEfficient.sensorNode2.app[1] rcvdPkLifetime:vector ETV
attr interpolationmode none
attr recordingmode vector
attr source dataAge(packetReceived)
attr title "received packet lifetime"
attr unit s
vector 254 WSN_EnergyEfficient.sensorNode2.app[1] rcvdPkSeqNo:vector ETV
attr interpolationmode none
attr recordingmode vector
attr source appPkSeqNo(packetReceived)
attr title "received packet sequence number"
vector 255 WSN_EnergyEfficient.sensorNode3.energyStorage powerConsumption:vector ETV
attr interpolationmode sample-hold
attr recordingmode vector
attr source powerConsumptionChanged
attr title "Power consumption"
attr unit W
vector 256 WSN_EnergyEfficient.sensorNode3.energyStorage powerGeneration:vector ETV
attr interpolationmode sample-hold
attr recordingmode vector
attr source powerGenerationChanged
attr title "Power generation"
attr unit W
vector 257 WSN_EnergyEfficient.sensorNode3.energyStorage residualEnergyCapacity:vector ETV
attr interpolationmode linear
attr recordingmode vector
attr source residualEnergyCapacityChanged
attr title "Residual energy capacity"
attr unit J
vector 258 WSN_EnergyEfficient.sensorNode3.lo[0].lo rcvdPkFromHl:vector(packetBytes) ETV
attr interpolationmode none
attr recordingmode vector(packetBytes)
attr source packetReceivedFromUpper
attr title "packets received from higher layer, packetBytes"
vector 259 WSN_EnergyEfficient.sensorNode3.lo[0].lo passedUpPk:vector(packetBytes) ETV
attr interpolationmode none
attr recordingmode vector(packetBytes)
attr source packetSentToUpper
attr title "packets passed to higher layer, packetBytes"
vector 260 WSN_EnergyEfficient.sensorNode3.lo[0] packetDropInterfaceDown:vector(packetBytes) ETV
attr interpolationmode none
attr recordingmode vector(packetBytes)
attr source packetDropReasonIsInterfaceDown(packetDropped)
attr title "packet drops: interface down, packetBytes"
vector 261 WSN_EnergyEfficient.sensorNode3.lo[0] packetDropNoCarrier:vector(packetBytes) ETV
attr interpolationmode none
attr recordingmode vector(packetBytes)
attr source packetDropReasonIsNoCarrier(packetDropped)
attr title "packet drops: no carrier, packetBytes"
vector 262 WSN_EnergyEfficient.sensorNode3.wlan[0].mac.dcf.channelAccess.pendingQueue queueLength:vector ETV
attr autoWarmupFilter false
attr interpolationmode sample-hold
attr recordingmode vector
attr source "warmup(atomic(constant0(packetPushEnded) + count(packetPushStarted) - count(packetPulled) - count(packetRemoved) - count(packetDropped)))"
attr title "queue length"
attr unit pk
vector 263 WSN_EnergyEfficient.sensorNode3.wlan[0].mac.dcf.channelAccess.pendingQueue queueBitLength:vector ETV
attr autoWarmupFilter false
attr interpolationmode sample-hold
attr recordingmode vector
attr source "warmup(atomic(constant0(packetPushEnded) + sum(packetLength(packetPushStarted)) - sum(packetLength(packetPulled)) - sum(packetLength(packetRemoved)) - sum(packetLength(packetDropped))))"
attr title "queue bit length"
attr unit b
vector 264 WSN_EnergyEfficient.sensorNode3.wlan[0].mac.dcf.channelAccess.pendingQueue queueingTime:vector ETV
attr interpolationmode none
attr recordingmode vector
attr source queueingTime(packetPulled)
attr title "queueing times"
attr unit s
vector 265 WSN_EnergyEfficient.sensorNode3.wlan[0].mac.dcf.channelAccess.pendingQueue incomingPacketLengths:vector ETV
attr interpolationmode none
attr recordingmode vector
attr source packetLength(packetPushStarted)
attr title "incoming packet lengths"
attr unit b
vector 266 WSN_EnergyEfficient.sensorNode3.wlan[0].mac.dcf.channelAccess.pendingQueue incomingDataRate:vector ETV
attr interpolationmode linear
attr recordingmode vector
attr source throughput(packetPushStarted)
attr title "incoming datarate"
attr unit bps
vector 267 WSN_EnergyEfficient.sensorNode3.wlan[0].mac.dcf.channelAccess.pendingQueue outgoingPacketLengths:vector ETV
attr interpolationmode none
attr recordingmode vector
attr source packetLength(packetPulled)
attr title "outgoing packet lengths"
attr unit b
vector 268 WSN_EnergyEfficient.sensorNode3.wlan[0].mac.dcf.channelAccess.pendingQueue outgoingDataRate:vector ETV
attr interpolationmode linear
attr recordingmode vector
attr source throughput(packetPulled)
attr title "outgoing datarate"
attr unit bps
vector 269 WSN_EnergyEfficient.sensorNode3.wlan[0].mac.dcf.channelAccess.pendingQueue droppedPacketLengthsQueueOverflow:vector ETV
attr interpolationmode none
attr recordingmode vector
attr source packetLength(packetDropReasonIsQueueOverflow(packetDropped))
attr title "dropped packet lengths: queue overflow"
attr unit b
vector 270 WSN_EnergyEfficient.sensorNode3.wlan[0].mac.dcf.channelAccess.pendingQueue flowQueueingTime:vector ETV
attr interpolationmode none
attr recordingmode vector
attr source queueingTime(demuxFlow(packetPulled))
attr title "flow queueing times"
attr unit s
vector 271 WSN_EnergyEfficient.sensorNode3.wlan[0].mac.dcf.channelAccess.pendingQueue flowIncomingDataRate:vector ETV
attr interpolationmode linear
attr recordingmode vector
attr source throughput(flowPacketLength(demuxFlow(packetPushStarted)))
attr title "flow specific incoming data rate"
attr unit bps
vector 272 WSN_EnergyEfficient.sensorNode3.wlan[0].mac.dcf.channelAccess.pendingQueue flowOutgoingDataRate:vector ETV
attr interpolationmode linear
attr recordingmode vector
attr source throughput(flowPacketLength(demuxFlow(packetPulled)))
attr title "flow specific outgoing data rate"
attr unit bps
vector 273 WSN_EnergyEfficient.sensorNode3.wlan[0].mac.dcf.channelAccess.inProgressFrames queueingTime:vector ETV
attr interpolationmode none
attr recordingmode vector
attr source queueingTime(packetDequeued)
attr title "queueing times"
vector 274 WSN_EnergyEfficient.sensorNode3.wlan[0].mac.dcf.channelAccess.inProgressFrames queueLength:vector ETV
attr autoWarmupFilter false
attr interpolationmode sample-hold
attr recordingmode vector
attr source "warmup(count(packetEnqueued) - count(packetDequeued))"
attr title "queue length"
vector 275 WSN_EnergyEfficient.sensorNode3.wlan[0].mac.dcf.channelAccess.contention backoffPeriodGenerated:vector ETV
attr interpolationmode none
attr recordingmode vector
attr title "backoff periods"
vector 276 WSN_EnergyEfficient.sensorNode3.wlan[0].mac.dcf.channelAccess.contention backoffActive:vector ETV
attr autoWarmupFilter false
attr interpolationmode sample-hold
attr recordingmode vector
attr source warmup(count(backoffStarted)-count(backoffStopped))
attr title "backoff active"
vector 277 WSN_EnergyEfficient.sensorNode3.wlan[0].mac.dcf.channelAccess.contention stateChanged:vector ETV
attr enum IDLE,DEFER,IFS_AND_BACKOFF
attr interpolationmode none
attr recordingmode vector
attr title "contention state changed"
attr type enum
vector 278 WSN_EnergyEfficient.sensorNode3.wlan[0].mac.dcf.recipientMacDataService packetDropDuplicateDetected:vector(packetBytes) ETV
attr interpolationmode none
attr recordingmode vector(packetBytes)
attr source packetDropReasonIsDuplicateDetected(packetDropped)
attr title "packet drops: duplicate detected, packetBytes"
vector 279 WSN_EnergyEfficient.sensorNode3.wlan[0].mac.dcf.recoveryProcedure contentionWindowChanged:vector ETV
attr interpolationmode sample-hold
attr recordingmode vector
attr title "contention window"
vector 280 WSN_EnergyEfficient.sensorNode3.wlan[0].mac.dcf packetSentToPeer:vector(packetBytes) ETV
attr interpolationmode none
attr recordingmode vector(packetBytes)
attr title "packets sent, packetBytes"
vector 281 WSN_EnergyEfficient.sensorNode3.wlan[0].mac.dcf packetSentToPeerUnicast:vector(packetBytes) ETV
attr interpolationmode none
attr recordingmode vector(packetBytes)
attr source ieee80211Unicast(packetSentToPeer)
attr title "packets sent: unicast, packetBytes"
vector 282 WSN_EnergyEfficient.sensorNode3.wlan[0].mac.dcf packetSentToPeerMulticast:vector(packetBytes) ETV
attr interpolationmode none
attr recordingmode vector(packetBytes)
attr source ieee80211Multicast(packetSentToPeer)
attr title "packets sent: multicast, packetBytes"
vector 283 WSN_EnergyEfficient.sensorNode3.wlan[0].mac.dcf packetSentToPeerBroadcast:vector(packetBytes) ETV
attr interpolationmode none
attr recordingmode vector(packetBytes)
attr source ieee80211Broadcast(packetSentToPeer)
attr title "packets sent: broadcast , packetBytes"
vector 284 WSN_EnergyEfficient.sensorNode3.wlan[0].mac.dcf packetSentToPeerWithRetry:vector(packetBytes) ETV
attr interpolationmode none
attr recordingmode vector(packetBytes)
attr source ieee80211Retry(packetSentToPeer)
attr title "packets sent: with retry, packetBytes"
vector 285 WSN_EnergyEfficient.sensorNode3.wlan[0].mac.dcf packetSentToPeerWithoutRetry:vector(packetBytes) ETV
attr interpolationmode none
attr recordingmode vector(packetBytes)
attr source ieee80211NotRetry(packetSentToPeer)
attr title "packets sent: without retry, packetBytes"
vector 286 WSN_EnergyEfficient.sensorNode3.wlan[0].mac.dcf packetReceivedFromPeer:vector(packetBytes) ETV
attr interpolationmode none
attr recordingmode vector(packetBytes)
attr title "packets received, packetBytes"
vector 287 WSN_EnergyEfficient.sensorNode3.wlan[0].mac.dcf packetReceivedFromPeerUnicast:vector(packetBytes) ETV
attr interpolationmode none
attr recordingmode vector(packetBytes)
attr source ieee80211Unicast(packetReceivedFromPeer)
attr title "packets received: unicast, packetBytes"
vector 288 WSN_EnergyEfficient.sensorNode3.wlan[0].mac.dcf packetReceivedFromPeerMulticast:vector(packetBytes) ETV
attr interpolationmode none
attr recordingmode vector(packetBytes)
attr source ieee80211Multicast(packetReceivedFromPeer)
attr title "packets received: multicast, packetBytes"
vector 289 WSN_EnergyEfficient.sensorNode3.wlan[0].mac.dcf packetReceivedFromPeerBroadcast:vector(packetBytes) ETV
attr interpolationmode none
attr recordingmode vector(packetBytes)
attr source ieee80211Broadcast(packetReceivedFromPeer)
attr title "packets received: broadcast, packetBytes"
vector 290 WSN_EnergyEfficient.sensorNode3.wlan[0].mac.dcf packetReceivedFromPeerWithRetry:vector(packetBytes) ETV
attr interpolationmode none
attr recordingmode vector(packetBytes)
attr source ieee80211Retry(packetReceivedFromPeer)
attr title "packets received: with retry, packetBytes"
vector 291 WSN_EnergyEfficient.sensorNode3.wlan[0].mac.dcf packetReceivedFromPeerWithoutRetry:vector(packetBytes) ETV
attr interpolationmode none
attr recordingmode vector(packetBytes)
attr source ieee80211NotRetry(packetReceivedFromPeer)
attr title "packets received: without retry, packetBytes"
vector 292 WSN_EnergyEfficient.sensorNode3.wlan[0].mac.dcf packetDrop:vector(packetBytes) ETV
attr interpolationmode none
attr recordingmode vector(packetBytes)
attr source packetDropped
attr title "packet drops, packetBytes"
vector 293 WSN_EnergyEfficient.sensorNode3.wlan[0].mac.dcf packetDropNotAddressedToUs:vector(packetBytes) ETV
attr interpolationmode none
attr recordingmode vector(packetBytes)
attr source packetDropReasonIsNotAddressedToUs(packetDropped)
attr title "packet drops: not addressed to us, packetBytes"
vector 294 WSN_EnergyEfficient.sensorNode3.wlan[0].mac.dcf packetDropQueueOverflow:vector(packetBytes) ETV
attr interpolationmode none
attr recordingmode vector(packetBytes)
attr source packetDropReasonIsQueueOverflow(packetDropped)
attr title "packet drops: queue overflow, packetBytes"
vector 295 WSN_EnergyEfficient.sensorNode3.wlan[0].mac.dcf packetDropRetryLimitReached:vector(packetBytes) ETV
attr interpolationmode none
attr recordingmode vector(packetBytes)
attr source packetDropReasonIsRetryLimitReached(packetDropped)
attr title "packet drops: retry limit reached, packetBytes"
vector 296 WSN_EnergyEfficient.sensorNode3.wlan[0].mac.dcf frameSequenceActive:vector ETV
attr autoWarmupFilter false
attr interpolationmode sample-hold
attr recordingmode vector
attr source warmup(count(frameSequenceStarted)-count(frameSequenceFinished))
attr title "frame sequence active"
vector 297 WSN_EnergyEfficient.sensorNode3.wlan[0].mac.dcf datarateSelected:vector ETV
attr interpolationmode none
attr recordingmode vector
attr title "datarates selected"
vector 298 WSN_EnergyEfficient.sensorNode3.wlan[0].mac.rx nav:vector ETV
attr interpolationmode linear
attr recordingmode vector
attr source navChanged
attr title "network allocation vector"
vector 299 WSN_EnergyEfficient.sensorNode3.wlan[0].mac packetSentToUpper:vector(packetBytes) ETV
attr interpolationmode none
attr recordingmode vector(packetBytes)
attr title "packets sent to upper layer, packetBytes"
vector 300 WSN_EnergyEfficient.sensorNode3.wlan[0].mac packetSentToLower:vector(packetBytes) ETV
attr interpolationmode none
attr recordingmode vector(packetBytes)
attr title "packets sent to lower layer, packetBytes"
vector 301 WSN_EnergyEfficient.sensorNode3.wlan[0].mac packetReceivedFromUpper:vector(packetBytes) ETV
attr interpolationmode none
attr recordingmode vector(packetBytes)
attr title "packets received from upper layer, packetBytes"
[...]
attr interpolationmode none
attr recordingmode vector(count)
attr source packetDropReasonIsIncorrectlyReceived(packetDropped)
attr title "packets dropped (checksum error), count"
vector 1427 WSN_EnergyEfficient.accessPoint1.app[0] packetReceived:vector(packetBytes) ETV
attr interpolationmode none
attr recordingmode vector(packetBytes)
attr source packetReceived
attr title "packets received, packetBytes"
vector 1428 WSN_EnergyEfficient.accessPoint1.app[0] throughput:vector ETV
attr recordingmode vector
attr source throughput(packetReceived)
attr title throughput
attr unit bps
vector 1429 WSN_EnergyEfficient.accessPoint1.app[0] endToEndDelay:vector ETV
attr interpolationmode none
attr recordingmode vector
attr source dataAge(packetReceived)
attr title "end-to-end delay"
attr unit s
vector 1430 WSN_EnergyEfficient.accessPoint1.app[0] rcvdPkSeqNo:vector ETV
attr interpolationmode none
attr recordingmode vector
attr source appPkSeqNo(packetReceived)
attr title "received packet sequence number"
0	372427 103 0 17759 0 45.000000000001 7 0 0.002 0.002 4e-06
2	372530 14715 0 56214 0 200 417 0.059999999999998 0.15 59.409941014948 8.6228980715495
7	387245 45 0 0 0 0 5 0 0 0 0
8	387290 45 0 0 0 0 5 0 0 0 0
19	387335 20 0 0 0 0 2 0 0 0 0
21	387355 20 0 0 0 0 2 0 0 0 0
22	387375 76 0 17759 0 45.000000000001 4 0 0 0 0
24	387451 11 0 0 0 0 1 31 31 31 961
41	387462 20 0 0 0 0 2 0 0 0 0
55	387482 100 0 17759 0 45.000000000001 6 0 0.002 0.002 4e-06
56	387582 58 0 17759 0 45.000000000001 4 0 2 2 4
57	387640 38 0 17759 0 45.000000000001 2 0 1 1 1
59	387678 10 0 0 0 0 1 0 0 0 0
66	387688 111 3359 9887 8.598391696811 25.225237540785 4 60 92 304 24128
70	387799 56 4325 9886 11.027633703779 25.225237540785 2 40 40 80 3200
72	387855 10 0 0 0 0 1 0 0 0 0
73	387865 10 0 0 0 0 1 0 0 0 0
74	387875 10 0 0 0 0 1 0 0 0 0
78	387885 53 3357 9200 8.598391696811 23.413570705752 2 0 1 1 1
82	387938 56 4323 9885 11.027633703779 25.225237540785 2 32 32 64 2048
85	387994 110 0 17760 0 45.000000000001 7 0 0.002 0.002 4e-06
87	388104 15132 0 56214 0 200 417 0.059999999999998 0.15 59.409941014948 8.6228980715495
92	403236 50 0 0 0 0 5 0 0 0 0
93	403286 50 0 0 0 0 5 0 0 0 0
104	403336 22 0 0 0 0 2 0 0 0 0
106	403358 22 0 0 0 0 2 0 0 0 0
107	403380 80 0 17760 0 45.000000000001 4 0 0 0 0
109	403460 12 0 0 0 0 1 31 31 31 961
126	403472 22 0 0 0 0 2 0 0 0 0
140	403494 106 0 17760 0 45.000000000001 6 0 0.002 0.002 4e-06
141	403600 62 0 17760 0 45.000000000001 4 0 2 2 4
142	403662 40 0 17760 0 45.000000000001 2 0 1 1 1
144	403702 11 0 0 0 0 1 0 0 0 0
151	403713 86 1871 5530 4.812893171096 14.013172325902 3 60 92 244 20528
155	403799 29 4428 4428 11.235636963975 11.235636963975 1 40 40 40 1600
157	403828 11 0 0 0 0 1 0 0 0 0
158	403839 11 0 0 0 0 1 0 0 0 0
159	403850 11 0 0 0 0 1 0 0 0 0
163	403861 55 1869 5529 4.812893171096 14.013172325902 2 0 1 1 1
167	403916 29 4426 4426 11.235636963975 11.235636963975 1 32 32 32 1024
170	403945 117 0 17761 0 45.000000000001 7 0 0.002 0.002 4e-06
172	404062 15549 0 56214 0 200 417 0.059999999999998 0.15 59.409941014948 8.6228980715495
177	419611 55 0 0 0 0 5 0 0 0 0
178	419666 55 0 0 0 0 5 0 0 0 0
189	419721 22 0 0 0 0 2 0 0 0 0
191	419743 22 0 0 0 0 2 0 0 0 0
192	419765 80 0 17761 0 45.000000000001 4 0 0 0 0
194	419845 12 0 0 0 0 1 31 31 31 961
211	419857 22 0 0 0 0 2 0 0 0 0
225	419879 106 0 17761 0 45.000000000001 6 0 0.002 0.002 4e-06
226	419985 62 0 17761 0 45.000000000001 4 0 2 2 4
227	420047 40 0 17761 0 45.000000000001 2 0 1 1 1
229	420087 11 0 0 0 0 1 0 0 0 0
236	420098 236 1374 16793 3.677811447298 42.777913157836 8 60 92 608 48256
240	420334 119 5479 16792 13.917730017565 42.777913157836 4 40 40 160 6400
242	420453 11 0 0 0 0 1 0 0 0 0
243	420464 11 0 0 0 0 1 0 0 0 0
244	420475 11 0 0 0 0 1 0 0 0 0
248	420486 113 1372 15383 3.677811447298 39.226510555224 4 0 3 6 14
252	420599 119 5477 16791 13.917730017565 42.777913157836 4 32 32 128 4096
255	420718 117 0 17762 0 45.000000000001 7 0 0.002 0.002 4e-06
257	420835 15549 0 56214 0 200 417 0.059999999999998 0.15 59.409941014948 8.6228980715495
262	436384 55 0 0 0 0 5 0 0 0 0
263	436439 55 0 0 0 0 5 0 0 0 0
274	436494 22 0 0 0 0 2 0 0 0 0
276	436516 22 0 0 0 0 2 0 0 0 0
277	436538 80 0 17762 0 45.000000000001 4 0 0 0 0
279	436618 12 0 0 0 0 1 31 31 31 961
296	436630 22 0 0 0 0 2 0 0 0 0
310	436652 106 0 17762 0 45.000000000001 6 0 0.002 0.002 4e-06
311	436758 62 0 17762 0 45.000000000001 4 0 2 2 4
312	436820 40 0 17762 0 45.000000000001 2 0 1 1 1
314	436860 11 0 0 0 0 1 0 0 0 0
321	436871 116 1676 12518 4.450973691884 31.854877165536 4 60 92 304 24128
325	436987 58 3836 12517 9.776651116554 31.854877165536 2 40 40 80 3200
327	437045 11 0 0 0 0 1 0 0 0 0
328	437056 11 0 0 0 0 1 0 0 0 0
329	437067 11 0 0 0 0 1 0 0 0 0
333	437078 56 1674 10173 4.450973691884 25.812417634874 2 0 1 1 1
337	437134 58 3834 12516 9.776651116554 31.854877165536 2 32 32 64 2048
340	437192 117 0 17763 0 45.000000000001 7 0 0.002 0.002 4e-06
342	437309 15549 0 56214 0 200 417 0.059999999999998 0.15 59.409941014948 8.6228980715495
347	452858 55 0 0 0 0 5 0 0 0 0
348	452913 55 0 0 0 0 5 0 0 0 0
359	452968 22 0 0 0 0 2 0 0 0 0
361	452990 22 0 0 0 0 2 0 0 0 0
362	453012 80 0 17763 0 45.000000000001 4 0 0 0 0
364	453092 12 0 0 0 0 1 31 31 31 961
381	453104 22 0 0 0 0 2 0 0 0 0
395	453126 106 0 17763 0 45.000000000001 6 0 0.002 0.002 4e-06
396	453232 62 0 17763 0 45.000000000001 4 0 2 2 4
397	453294 40 0 17763 0 45.000000000001 2 0 1 1 1
399	453334 11 0 0 0 0 1 0 0 0 0
406	453345 114 2075 16351 5.319794542622 41.71617292831 4 60 92 304 24128
410	453459 57 4181 7336 10.680445637554 18.54848715892 2 40 40 80 3200
412	453516 11 0 0 0 0 1 0 0 0 0
413	453527 11 0 0 0 0 1 0 0 0 0
414	453538 11 0 0 0 0 1 0 0 0 0
418	453549 55 2073 16350 5.319794542622 41.71617292831 2 0 1 1 1
422	453604 57 4179 7335 10.680445637554 18.54848715892 2 32 32 64 2048
425	453661 117 0 17764 0 45.000000000001 7 0 0.002 0.002 4e-06
427	453778 15549 0 56214 0 200 417 0.059999999999998 0.15 59.409941014948 8.6228980715495
432	469327 55 0 0 0 0 5 0 0 0 0
433	469382 55 0 0 0 0 5 0 0 0 0
444	469437 22 0 0 0 0 2 0 0 0 0
446	469459 22 0 0 0 0 2 0 0 0 0
447	469481 80 0 17764 0 45.000000000001 4 0 0 0 0
449	469561 12 0 0 0 0 1 31 31 31 961
466	469573 22 0 0 0 0 2 0 0 0 0
480	469595 106 0 17764 0 45.000000000001 6 0 0.002 0.002 4e-06
481	469701 62 0 17764 0 45.000000000001 4 0 2 2 4
482	469763 40 0 17764 0 45.000000000001 2 0 1 1 1
484	469803 11 0 0 0 0 1 0 0 0 0
491	469814 142 597 10568 1.639324528398 26.924593526112 5 60 92 428 37456
495	469956 28 3261 3261 8.373961616307 8.373961616307 1 40 40 40 1600
497	469984 11 0 0 0 0 1 0 0 0 0
498	469995 11 0 0 0 0 1 0 0 0 0
499	470006 11 0 0 0 0 1 0 0 0 0
503	470017 110 595 10567 1.639324528398 26.924593526112 4 0 3 6 14
507	470127 28 3259 3259 8.373961616307 8.373961616307 1 32 32 32 1024
510	470155 117 0 17765 0 45.000000000001 7 0 0.002 0.002 4e-06
512	470272 15549 0 56214 0 200 417 0.059999999999998 0.15 59.409941014948 8.6228980715495
517	485821 55 0 0 0 0 5 0 0 0 0
518	485876 55 0 0 0 0 5 0 0 0 0
529	485931 22 0 0 0 0 2 0 0 0 0
531	485953 22 0 0 0 0 2 0 0 0 0
532	485975 80 0 17765 0 45.000000000001 4 0 0 0 0
534	486055 12 0 0 0 0 1 31 31 31 961
551	486067 22 0 0 0 0 2 0 0 0 0
565	486089 106 0 17765 0 45.000000000001 6 0 0.002 0.002 4e-06
566	486195 62 0 17765 0 45.000000000001 4 0 2 2 4
567	486257 40 0 17765 0 45.000000000001 2 0 1 1 1
569	486297 11 0 0 0 0 1 0 0 0 0
576	486308 147 1663 16931 4.314173836261 43.078960458386 5 60 92 364 27728
580	486455 89 5263 16930 13.326198428404 43.078960458386 3 40 40 120 4800
582	486544 11 0 0 0 0 1 0 0 0 0
583	486555 11 0 0 0 0 1 0 0 0 0
584	486566 11 0 0 0 0 1 0 0 0 0
588	486577 56 1661 10519 4.314173836261 26.777539866927 2 0 1 1 1
592	486633 89 5261 16929 13.326198428404 43.078960458386 3 32 32 96 3072
595	486722 117 0 17766 0 45.000000000001 7 0 0.002 0.002 4e-06
597	486839 15549 0 56214 0 200 417 0.059999999999998 0.15 59.409941014948 8.6228980715495
602	502388 55 0 0 0 0 5 0 0 0 0
603	502443 55 0 0 0 0 5 0 0 0 0
614	502498 22 0 0 0 0 2 0 0 0 0
616	502520 22 0 0 0 0 2 0 0 0 0
617	502542 80 0 17766 0 45.000000000001 4 0 0 0 0
619	502622 12 0 0 0 0 1 31 31 31 961
636	502634 22 0 0 0 0 2 0 0 0 0
650	502656 106 0 17766 0 45.000000000001 6 0 0.002 0.002 4e-06
651	502762 62 0 17766 0 45.000000000001 4 0 2 2 4
652	502824 40 0 17766 0 45.000000000001 2 0 1 1 1
654	502864 11 0 0 0 0 1 0 0 0 0
661	502875 116 3454 17140 8.83010930731 43.599598212328 4 60 92 272 19264
665	502991 89 5386 17139 13.700872510672 43.599598212328 3 40 40 120 4800
667	503080 11 0 0 0 0 1 0 0 0 0
668	503091 11 0 0 0 0 1 0 0 0 0
669	503102 11 0 0 0 0 1 0 0 0 0
673	503113 26 3452 3452 8.83010930731 8.83010930731 1 0 0 0 0
677	503139 89 5384 17138 13.700872510672 43.599598212328 3 32 32 96 3072
680	503228 117 0 17767 0 45.000000000001 7 0 0.002 0.002 4e-06
682	503345 15549 0 56214 0 200 417 0.059999999999998 0.15 59.409941014948 8.6228980715495
687	518894 55 0 0 0 0 5 0 0 0 0
688	518949 55 0 0 0 0 5 0 0 0 0
699	519004 22 0 0 0 0 2 0 0 0 0
701	519026 22 0 0 0 0 2 0 0 0 0
702	519048 80 0 17767 0 45.000000000001 4 0 0 0 0
704	519128 12 0 0 0 0 1 31 31 31 961
721	519140 22 0 0 0 0 2 0 0 0 0
735	519162 106 0 17767 0 45.000000000001 6 0 0.002 0.002 4e-06
736	519268 62 0 17767 0 45.000000000001 4 0 2 2 4
737	519330 40 0 17767 0 45.000000000001 2 0 1 1 1
739	519370 11 0 0 0 0 1 0 0 0 0
746	519381 56 3155 3759 8.208196772495 9.614793627989 2 60 92 152 12064
750	519437 28 3758 3758 9.614793627989 9.614793627989 1 40 40 40 1600
752	519465 11 0 0 0 0 1 0 0 0 0
753	519476 11 0 0 0 0 1 0 0 0 0
754	519487 11 0 0 0 0 1 0 0 0 0
758	519498 27 3153 3153 8.208196772495 8.208196772495 1 0 0 0 0
762	519525 28 3756 3756 9.614793627989 9.614793627989 1 32 32 32 1024
765	519553 117 0 17768 0 45.000000000001 7 0 0.002 0.002 4e-06
767	519670 15549 0 56214 0 200 417 0.059999999999998 0.15 59.409941014948 8.6228980715495
772	535219 55 0 0 0 0 5 0 0 0 0
773	535274 55 0 0 0 0 5 0 0 0 0
784	535329 22 0 0 0 0 2 0 0 0 0
786	535351 22 0 0 0 0 2 0 0 0 0
787	535373 80 0 17768 0 45.000000000001 4 0 0 0 0
789	535453 12 0 0 0 0 1 31 31 31 961
806	535465 22 0 0 0 0 2 0 0 0 0
820	535487 106 0 17768 0 45.000000000001 6 0 0.002 0.002 4e-06
821	535593 62 0 17768 0 45.000000000001 4 0 2 2 4
822	535655 40 0 17768 0 45.000000000001 2 0 1 1 1
824	535695 11 0 0 0 0 1 0 0 0 0
831	535706 200 779 12813 2.064469813835 32.590111895715 7 60 92 612 54384
835	535906 29 4792 4792 12.206326515879 12.206326515879 1 40 40 40 1600
837	535935 11 0 0 0 0 1 0 0 0 0
838	535946 11 0 0 0 0 1 0 0 0 0
839	535957 11 0 0 0 0 1 0 0 0 0
843	535968 165 777 12812 2.064469813835 32.590111895715 6 0 5 15 55
847	536133 29 4790 4790 12.206326515879 12.206326515879 1 32 32 32 1024
850	536162 117 0 17769 0 45.000000000001 7 0 0.002 0.002 4e-06
852	536279 15549 0 56214 0 200 417 0.059999999999998 0.15 59.409941014948 8.6228980715495
857	551828 55 0 0 0 0 5 0 0 0 0
858	551883 55 0 0 0 0 5 0 0 0 0
869	551938 22 0 0 0 0 2 0 0 0 0
871	551960 22 0 0 0 0 2 0 0 0 0
872	551982 80 0 17769 0 45.000000000001 4 0 0 0 0
874	552062 12 0 0 0 0 1 31 31 31 961
891	552074 22 0 0 0 0 2 0 0 0 0
905	552096 106 0 17769 0 45.000000000001 6 0 0.002 0.002 4e-06
906	552202 62 0 17769 0 45.000000000001 4 0 2 2 4
907	552264 40 0 17769 0 45.000000000001 2 0 1 1 1
909	552304 11 0 0 0 0 1 0 0 0 0
916	552315 87 2262 15171 5.836359054083 38.558028323499 3 60 92 212 15664
920	552402 59 5691 15170 14.446689186152 38.558028323499 2 40 40 80 3200
922	552461 11 0 0 0 0 1 0 0 0 0
923	552472 11 0 0 0 0 1 0 0 0 0
924	552483 11 0 0 0 0 1 0 0 0 0
928	552494 27 2260 2260 5.836359054083 5.836359054083 1 0 0 0 0
932	552521 59 5689 15169 14.446689186152 38.558028323499 2 32 32 64 2048
935	552580 117 0 17770 0 45.000000000001 7 0 0.002 0.002 4e-06
937	552697 15549 0 56214 0 200 417 0.059999999999998 0.15 59.409941014948 8.6228980715495
942	568246 55 0 0 0 0 5 0 0 0 0
943	568301 55 0 0 0 0 5 0 0 0 0
954	568356 22 0 0 0 0 2 0 0 0 0
956	568378 22 0 0 0 0 2 0 0 0 0
957	568400 80 0 17770 0 45.000000000001 4 0 0 0 0
959	568480 12 0 0 0 0 1 31 31 31 961
976	568492 22 0 0 0 0 2 0 0 0 0
990	568514 106 0 17770 0 45.000000000001 6 0 0.002 0.002 4e-06
991	568620 62 0 17770 0 45.000000000001 4 0 2 2 4
992	568682 40 0 17770 0 45.000000000001 2 0 1 1 1
994	568722 11 0 0 0 0 1 0 0 0 0
1001	568733 117 1826 5871 4.731957470067 14.794765191488 4 60 92 304 24128
1005	568850 59 3814 5870 9.736004227307 14.794765191488 2 40 40 80 3200
1007	568909 12 0 0 0 0 1 0 0 0 0
1008	568921 12 0 0 0 0 1 0 0 0 0
1009	568933 12 0 0 0 0 1 0 0 0 0
1013	568945 56 1824 3562 4.731957470067 9.109569400213 2 0 1 1 1
1017	569001 59 3812 5869 9.736004227307 14.794765191488 2 32 32 64 2048
1020	569060 124 0 17771 0 45.000000000001 7 0 0.002 0.002 4e-06
1022	569184 15966 0 56214 0 200 417 0.059999999999998 0.15 59.409941014948 8.6228980715495
1027	585150 60 0 0 0 0 5 0 0 0 0
1028	585210 60 0 0 0 0 5 0 0 0 0
1039	585270 24 0 0 0 0 2 0 0 0 0
1041	585294 24 0 0 0 0 2 0 0 0 0
1042	585318 84 0 17771 0 45.000000000001 4 0 0 0 0
1044	585402 13 0 0 0 0 1 31 31 31 961
1061	585415 24 0 0 0 0 2 0 0 0 0
1075	585439 112 0 17771 0 45.000000000001 6 0 0.002 0.002 4e-06
1076	585551 66 0 17771 0 45.000000000001 4 0 2 2 4
1077	585617 42 0 17771 0 45.000000000001 2 0 1 1 1
1079	585659 12 0 0 0 0 1 0 0 0 0
1086	585671 119 2963 13992 7.632263601292 35.606019714069 4 60 92 304 24128
1090	585790 60 3752 13991 9.561503359582 35.606019714069 2 40 40 80 3200
1092	585850 12 0 0 0 0 1 0 0 0 0
1093	585862 12 0 0 0 0 1 0 0 0 0
1094	585874 12 0 0 0 0 1 0 0 0 0
1098	585886 57 2961 3978 7.632263601292 10.160036329798 2 0 1 1 1
1102	585943 60 3750 13990 9.561503359582 35.606019714069 2 32 32 64 2048
1105	586003 124 0 17772 0 45.000000000001 7 0 0.002 0.002 4e-06
1107	586127 15966 0 56214 0 200 417 0.059999999999998 0.15 59.409941014948 8.6228980715495
1112	602093 60 0 0 0 0 5 0 0 0 0
1113	602153 60 0 0 0 0 5 0 0 0 0
1124	602213 24 0 0 0 0 2 0 0 0 0
1126	602237 24 0 0 0 0 2 0 0 0 0
1127	602261 84 0 17772 0 45.000000000001 4 0 0 0 0
1129	602345 13 0 0 0 0 1 31 31 31 961
1146	602358 24 0 0 0 0 2 0 0 0 0
1160	602382 112 0 17772 0 45.000000000001 6 0 0.002 0.002 4e-06
1161	602494 66 0 17772 0 45.000000000001 4 0 2 2 4
1162	602560 42 0 17772 0 45.000000000001 2 0 1 1 1
1164	602602 12 0 0 0 0 1 0 0 0 0
1171	602614 178 395 14793 1.169108182192 37.721148217858 6 60 92 488 41056
1175	602792 60 3199 14792 8.241410041228 37.721148217858 2 40 40 80 3200
1177	602852 12 0 0 0 0 1 0 0 0 0
1178	602864 12 0 0 0 0 1 0 0 0 0
1179	602876 12 0 0 0 0 1 0 0 0 0
1183	602888 114 393 10860 1.169108182192 27.676675236025 4 0 3 6 14
1187	603002 60 3197 14791 8.241410041228 37.721148217858 2 32 32 64 2048
1190	603062 124 0 17773 0 45.000000000001 7 0 0.002 0.002 4e-06
1192	603186 15966 0 56214 0 200 417 0.059999999999998 0.15 59.409941014948 8.6228980715495
1197	619152 60 0 0 0 0 5 0 0 0 0
1198	619212 60 0 0 0 0 5 0 0 0 0
1209	619272 24 0 0 0 0 2 0 0 0 0
1211	619296 24 0 0 0 0 2 0 0 0 0
1212	619320 84 0 17773 0 45.000000000001 4 0 0 0 0
1214	619404 13 0 0 0 0 1 31 31 31 961
1231	619417 24 0 0 0 0 2 0 0 0 0
1245	619441 112 0 17773 0 45.000000000001 6 0 0.002 0.002 4e-06
1246	619553 66 0 17773 0 45.000000000001 4 0 2 2 4
1247	619619 42 0 17773 0 45.000000000001 2 0 1 1 1
1249	619661 12 0 0 0 0 1 0 0 0 0
1256	619673 210 1141 12816 3.000892469659 32.629164182242 7 60 92 580 49520
1260	619883 61 4377 12815 11.169339986518 32.629164182242 2 40 40 80 3200
1262	619944 12 0 0 0 0 1 0 0 0 0
1263	619956 12 0 0 0 0 1 0 0 0 0
1264	619968 12 0 0 0 0 1 0 0 0 0
1268	619980 144 1139 10084 3.000892469659 25.666820433229 5 0 4 10 30
1272	620124 61 4375 12814 11.169339986518 32.629164182242 2 32 32 64 2048
1279	620185 24246 11 56184 0.183919038554 199.933919038554 800 1 1 800 800
1281	644431 24220 103 56184 0.433919038554 199.933919038554 799 1 1 799 799
1282	668651 48498 0 56155 0 199.783919038554 1603 0 1 799 799
1283	717149 50096 0 56155 0 199.783919038554 1603 0 256 204544 52363264
1284	767245 24219 59 56155 0.283919038554 199.783919038554 799 0 0 0 0
1285	791464 25817 57 56153 0.283919038554 199.783919038554 799 256 256 204544 52363264
1286	817281 55627 9835 56214 25.033919038554 200 1751 -146.31407332968 2560 1789293.6859267 4580987807.8081
1287	872908 25817 59 56155 0.283919038554 199.783919038554 799 256 256 204544 52363264
1288	898725 55627 9837 56214 25.033919038554 200 1751 -146.31407332968 2560 1789293.6859267 4580987807.8081
1293	954352 29013 78 56174 0.283957038554 199.783957038554 799 3.8e-05 3.8e-05 0.030362 1.153756e-06
1294	983365 48462 0 56174 0 199.783957038554 1600 0 1 799 799
1295	1031827 24748 57 56153 0.283919038554 199.783919038554 799 0 31 11860 241336
1296	1056575 48462 0 56154 0 199.783919038554 1600 0 1 799 799
1297	1105037 193776 0 56175 0 199.783957038554 6394 0 2 3196 6392
1299	1298813 13 0 0 0 0 1 31 31 31 961
1300	1298826 25018 78 56174 0.283957038554 199.783957038554 799 32 32 25568 818176
1302	1323844 25018 78 56174 0.283957038554 199.783957038554 799 32 32 25568 818176
1303	1348862 25018 78 56174 0.283957038554 199.783957038554 799 32 32 25568 818176
1305	1373880 25018 78 56174 0.283957038554 199.783957038554 799 32 32 25568 818176
1316	1398898 48462 0 56174 0 199.783957038554 1600 0 1 799 799
1317	1447360 29812 59 56155 0.283919038554 199.783919038554 799 24000000 24000000 19176000000 4.60224e+17
1320	1477172 25018 59 56155 0.283919038554 199.783919038554 799 32 32 25568 818176
1330	1502190 48474 0 56175 0 199.783957038554 1601 0 3 3997 10391
1331	1550664 48450 0 56175 0 199.783957038554 1599 0 1 800 800
1332	1599114 96876 60 56175 0.283919038554 199.783957038554 3196 0 2 3196 4794
1333	1695990 24258 0 56187 0 199.933919038554 801 0 0 0 0
1346	1720248 12 0 0 0 0 1 0 0 0 0
1347	1720260 12 0 0 0 0 1 0 0 0 0
1348	1720272 12 0 0 0 0 1 0 0 0 0
1357	1720284 24244 7 56179 0.131109585799 199.881109585799 800 1 1 800 800
1359	1744528 24219 98 56179 0.381109585799 199.881109585799 799 1 1 799 799
1360	1768747 48552 0 56191 0 199.981109585799 1605 0 1 800 800
1361	1817299 50152 0 56191 0 199.981109585799 1605 0 256 204800 52428800
1362	1867451 24246 18 56191 0.231109585799 199.981109585799 800 0 0 0 0
1363	1891697 25846 16 56189 0.231109585799 199.981109585799 800 256 256 204800 52428800
1364	1917543 55668 9794 56214 24.981109585799 200 1752 -146.26992514588 13551.846840206 1802845.5769151 4764640347.6714
1365	1973211 25846 18 56191 0.231109585799 199.981109585799 800 256 256 204800 52428800
1366	1999057 55668 9796 56214 24.981109585799 200 1752 -146.26992514588 13551.846840206 1802845.5769151 4764640347.6714
1371	2054725 29048 37 56210 0.231147585799 199.981147585799 800 3.8e-05 3.8e-05 0.0304 1.1552e-06
1372	2083773 48518 0 56210 0 199.981147585799 1602 0 1 800 800
1373	2132291 24795 16 56189 0.231109585799 199.981109585799 800 0 31 12500 266046
1374	2157086 48516 0 56190 0 199.981109585799 1602 0 1 800 800
1375	2205602 193996 0 56211 0 199.981147585799 6402 0 2 3200 6400
1377	2399598 13 0 0 0 0 1 31 31 31 961
1378	2399611 25048 37 56210 0.231147585799 199.981147585799 800 32 32 25600 819200
1380	2424659 25048 37 56210 0.231147585799 199.981147585799 800 32 32 25600 819200
1381	2449707 25048 37 56210 0.231147585799 199.981147585799 800 32 32 25600 819200
1383	2474755 25048 37 56210 0.231147585799 199.981147585799 800 32 32 25600 819200
1394	2499803 48518 0 56210 0 199.981147585799 1602 0 1 800 800
1395	2548321 29846 18 56191 0.231109585799 199.981109585799 800 24000000 24000000 19200000000 4.608e+17
1398	2578167 25046 18 56191 0.231109585799 199.981109585799 800 32 32 25600 819200
1408	2603213 48530 0 56211 0 199.981147585799 1603 0 3 4002 10404
1409	2651743 48506 0 56211 0 199.981147585799 1601 0 1 801 801
1410	2700249 96988 19 56211 0.231109585799 199.981147585799 3200 0 2 3200 4800
1411	2797237 24258 0 56182 0 199.881109585799 801 0 0 0 0
1424	2821495 12 0 0 0 0 1 0 0 0 0
1425	2821507 12 0 0 0 0 1 0 0 0 0
1426	2821519 12 0 0 0 0 1 0 0 0 0

