file 11458322 1750975366                                        
version 3
run General-0-20250627-04:02:16-14416
attr configname General
attr datetime 20250627-04:02:16
attr datetimef 20250627-040216
attr experiment General
attr inifile omnetpp.ini
attr iterationvars ""
attr iterationvarsd ""
attr iterationvarsf ""
attr measurement ""
attr network WSN_EnergyEfficient
attr processid 14416
attr repetition 0
attr replication #0
attr resultdir results
attr runnumber 0
attr seedset 0
config image-path ../../inet4.5/images
config network WSN_EnergyEfficient
config sim-time-limit 200s
config *.visualizer.energyStorageVisualizer.displayEnergyStorages true
config *.visualizer.dataLinkVisualizer.displayLinks true
config *.visualizer.dataLinkVisualizer.packetFilter "\"*\""
config *.visualizer.networkRouteVisualizer.displayRoutes true
config *.visualizer.networkRouteVisualizer.packetFilter "\"*\""
config *.visualizer.networkRouteVisualizer.lineColor "\"blue\""
config *.visualizer.physicalLinkVisualizer.displayLinks true
config *.visualizer.mobilityVisualizer.displayMobility true
config *.visualizer.mobilityVisualizer.displayMovementTrails true
config *.sensorNode*.hasStatus true
config *.sensorNode*.energyStorage.typename SimpleEpEnergyStorage
config *.sensorNode*.wlan[0].radio.energyConsumer.typename StateBasedEpEnergyConsumer
config *.sensorNode*.energyManagement.typename SimpleEpEnergyManagement
config *.sensorNode*.energyStorage.nominalCapacity 0.15J
config *.sensorNode*.energyStorage.initialCapacity "uniform(0.08J, 0.15J)"
config *.sensorNode*.energyManagement.nodeShutdownCapacity 0.06J
config *.sensorNode*.energyManagement.nodeStartCapacity 0.09J
config *.sensorNode*.energyGenerator.typename AlternatingEpEnergyGenerator
config *.sensorNode*.energyGenerator.powerGeneration 3mW
config *.sensorNode*.energyGenerator.sleepInterval exponential(15s)
config *.sensorNode*.energyGenerator.generationInterval exponential(20s)
config *.sensorNode*.mobility.typename StationaryMobility
config *.sensorNode*.mobility.initFromDisplayString true
config *.accessPoint*.mobility.typename StationaryMobility
config *.accessPoint*.mobility.initFromDisplayString true
config *.sensorNode*.wlan[0].bitrate 1Mbps
config *.accessPoint*.wlan[0].bitrate 1Mbps
config *.configurator.addStaticRoutes false
config *.configurator.addDefaultRoutes false
config *.configurator.addSubnetRoutes false
config *.configurator.optimizeRoutes false
config *.sensorNode*.numApps 2
config *.sensorNode*.app[0].typename PingApp
config *.sensorNode*.app[0].destAddr "\"accessPoint0\""
config *.sensorNode*.app[0].startTime "uniform(1s, 10s)"
config *.sensorNode*.app[0].stopTime 190s
config *.sensorNode*.app[0].sendInterval exponential(20s)
config *.sensorNode*.app[0].packetSize 64B
config *.sensorNode*.app[0].printPing true
config *.sensorNode*.app[1].typename UdpBasicApp
config *.sensorNode*.app[1].destAddresses "\"accessPoint0\""
config *.sensorNode*.app[1].destPort 5000
config *.sensorNode*.app[1].messageLength 32B
config *.sensorNode*.app[1].sendInterval exponential(25s)
config *.sensorNode*.app[1].startTime "uniform(5s, 15s)"
config *.sensorNode*.app[1].stopTime 190s
config *.accessPoint*.numApps 1
config *.accessPoint*.hasStatus true
config *.accessPoint*.app[0].typename UdpSink
config *.accessPoint*.app[0].localPort 5000
config *.sensorNode*.wlan[0].radio.transmitter.power 1mW
config *.sensorNode*.wlan[0].radio.receiver.sensitivity -90dBm
config *.sensorNode*.wlan[0].radio.receiver.energyDetection -90dBm
config *.sensorNode*.wlan[0].radio.receiver.snirThreshold 3dB
config *.accessPoint*.wlan[0].radio.transmitter.power 10mW
config *.accessPoint*.wlan[0].radio.receiver.sensitivity -90dBm
config *.accessPoint*.wlan[0].radio.receiver.energyDetection -90dBm
config *.accessPoint*.wlan[0].radio.receiver.snirThreshold 3dB
config *.sensorNode*.wlan[0].mac.typename Ieee80211Mac
config *.sensorNode*.wlan[0].mac.useAck true
config *.sensorNode*.wlan[0].mac.maxQueueSize 8
config *.accessPoint*.wlan[0].mac.typename Ieee80211Mac
config *.accessPoint*.wlan[0].mac.useAck true
config *.accessPoint*.wlan[0].mac.maxQueueSize 20
config *.sensorNode*.wlan[0].mac.recordStatistics true
config *.accessPoint*.wlan[0].mac.recordStatistics true
config *.sensorNode*.wlan[0].mac.backoffMethod "\"exponential\""
config *.sensorNode*.wlan[0].mac.retryLimit 3
config *.sensorNode*.wlan[0].mac.cwMin 7
config *.sensorNode*.wlan[0].mac.cwMax 63
config *.radioMedium.pathLoss.typename FreeSpacePathLoss
config *.sensorNode*.wlan[0].radio.displayCommunicationRange true
config *.accessPoint*.wlan[0].radio.displayCommunicationRange true
config *.sensorNode*.wlan[0].mac.slotTime 20us
config *.sensorNode*.wlan[0].mac.difs 50us
config *.sensorNode*.wlan[0].mac.sifs 10us

vector 0 WSN_EnergyEfficient.sensorNode0.energyStorage powerConsumption:vector ETV
attr interpolationmode sample-hold
attr recordingmode vector
attr source powerConsumptionChanged
attr title "Power consumption"
attr unit W
vector 1 WSN_EnergyEfficient.sensorNode0.energyStorage powerGeneration:vector ETV
attr interpolationmode sample-hold
attr recordingmode vector
attr source powerGenerationChanged
attr title "Power generation"
attr unit W
vector 2 WSN_EnergyEfficient.sensorNode0.energyStorage residualEnergyCapacity:vector ETV
attr interpolationmode linear
attr recordingmode vector
attr source residualEnergyCapacityChanged
attr title "Residual energy capacity"
attr unit J
vector 3 WSN_EnergyEfficient.sensorNode0.energyGenerator powerGeneration:vector ETV
attr interpolationmode sample-hold
attr recordingmode vector
attr source powerGenerationChanged
attr title "Power generation"
attr unit W
vector 4 WSN_EnergyEfficient.sensorNode0.lo[0].lo rcvdPkFromHl:vector(packetBytes) ETV
attr interpolationmode none
attr recordingmode vector(packetBytes)
attr source packetReceivedFromUpper
attr title "packets received from higher layer, packetBytes"
vector 5 WSN_EnergyEfficient.sensorNode0.lo[0].lo passedUpPk:vector(packetBytes) ETV
attr interpolationmode none
attr recordingmode vector(packetBytes)
attr source packetSentToUpper
attr title "packets passed to higher layer, packetBytes"
vector 6 WSN_EnergyEfficient.sensorNode0.lo[0] packetDropInterfaceDown:vector(packetBytes) ETV
attr interpolationmode none
attr recordingmode vector(packetBytes)
attr source packetDropReasonIsInterfaceDown(packetDropped)
attr title "packet drops: interface down, packetBytes"
vector 7 WSN_EnergyEfficient.sensorNode0.lo[0] packetDropNoCarrier:vector(packetBytes) ETV
attr interpolationmode none
attr recordingmode vector(packetBytes)
attr source packetDropReasonIsNoCarrier(packetDropped)
attr title "packet drops: no carrier, packetBytes"
vector 8 WSN_EnergyEfficient.sensorNode0.wlan[0].mac.dcf.channelAccess.pendingQueue queueLength:vector ETV
attr autoWarmupFilter false
attr interpolationmode sample-hold
attr recordingmode vector
attr source "warmup(atomic(constant0(packetPushEnded) + count(packetPushStarted) - count(packetPulled) - count(packetRemoved) - count(packetDropped)))"
attr title "queue length"
attr unit pk
vector 9 WSN_EnergyEfficient.sensorNode0.wlan[0].mac.dcf.channelAccess.pendingQueue queueBitLength:vector ETV
attr autoWarmupFilter false
attr interpolationmode sample-hold
attr recordingmode vector
attr source "warmup(atomic(constant0(packetPushEnded) + sum(packetLength(packetPushStarted)) - sum(packetLength(packetPulled)) - sum(packetLength(packetRemoved)) - sum(packetLength(packetDropped))))"
attr title "queue bit length"
attr unit b
vector 10 WSN_EnergyEfficient.sensorNode0.wlan[0].mac.dcf.channelAccess.pendingQueue queueingTime:vector ETV
attr interpolationmode none
attr recordingmode vector
attr source queueingTime(packetPulled)
attr title "queueing times"
attr unit s
vector 11 WSN_EnergyEfficient.sensorNode0.wlan[0].mac.dcf.channelAccess.pendingQueue incomingPacketLengths:vector ETV
attr interpolationmode none
attr recordingmode vector
attr source packetLength(packetPushStarted)
attr title "incoming packet lengths"
attr unit b
vector 12 WSN_EnergyEfficient.sensorNode0.wlan[0].mac.dcf.channelAccess.pendingQueue incomingDataRate:vector ETV
attr interpolationmode linear
attr recordingmode vector
attr source throughput(packetPushStarted)
attr title "incoming datarate"
attr unit bps
vector 13 WSN_EnergyEfficient.sensorNode0.wlan[0].mac.dcf.channelAccess.pendingQueue outgoingPacketLengths:vector ETV
attr interpolationmode none
attr recordingmode vector
attr source packetLength(packetPulled)
attr title "outgoing packet lengths"
attr unit b
vector 14 WSN_EnergyEfficient.sensorNode0.wlan[0].mac.dcf.channelAccess.pendingQueue outgoingDataRate:vector ETV
attr interpolationmode linear
attr recordingmode vector
attr source throughput(packetPulled)
attr title "outgoing datarate"
attr unit bps
vector 15 WSN_EnergyEfficient.sensorNode0.wlan[0].mac.dcf.channelAccess.pendingQueue droppedPacketLengthsQueueOverflow:vector ETV
attr interpolationmode none
attr recordingmode vector
attr source packetLength(packetDropReasonIsQueueOverflow(packetDropped))
attr title "dropped packet lengths: queue overflow"
attr unit b
vector 16 WSN_EnergyEfficient.sensorNode0.wlan[0].mac.dcf.channelAccess.pendingQueue flowQueueingTime:vector ETV
attr interpolationmode none
attr recordingmode vector
attr source queueingTime(demuxFlow(packetPulled))
attr title "flow queueing times"
attr unit s
vector 17 WSN_EnergyEfficient.sensorNode0.wlan[0].mac.dcf.channelAccess.pendingQueue flowIncomingDataRate:vector ETV
attr interpolationmode linear
attr recordingmode vector
attr source throughput(flowPacketLength(demuxFlow(packetPushStarted)))
attr title "flow specific incoming data rate"
attr unit bps
vector 18 WSN_EnergyEfficient.sensorNode0.wlan[0].mac.dcf.channelAccess.pendingQueue flowOutgoingDataRate:vector ETV
attr interpolationmode linear
attr recordingmode vector
attr source throughput(flowPacketLength(demuxFlow(packetPulled)))
attr title "flow specific outgoing data rate"
attr unit bps
vector 19 WSN_EnergyEfficient.sensorNode0.wlan[0].mac.dcf.channelAccess.inProgressFrames queueingTime:vector ETV
attr interpolationmode none
attr recordingmode vector
attr source queueingTime(packetDequeued)
attr title "queueing times"
vector 20 WSN_EnergyEfficient.sensorNode0.wlan[0].mac.dcf.channelAccess.inProgressFrames queueLength:vector ETV
attr autoWarmupFilter false
attr interpolationmode sample-hold
attr recordingmode vector
attr source "warmup(count(packetEnqueued) - count(packetDequeued))"
attr title "queue length"
vector 21 WSN_EnergyEfficient.sensorNode0.wlan[0].mac.dcf.channelAccess.contention backoffPeriodGenerated:vector ETV
attr interpolationmode none
attr recordingmode vector
attr title "backoff periods"
vector 22 WSN_EnergyEfficient.sensorNode0.wlan[0].mac.dcf.channelAccess.contention backoffActive:vector ETV
attr autoWarmupFilter false
attr interpolationmode sample-hold
attr recordingmode vector
attr source warmup(count(backoffStarted)-count(backoffStopped))
attr title "backoff active"
vector 23 WSN_EnergyEfficient.sensorNode0.wlan[0].mac.dcf.channelAccess.contention stateChanged:vector ETV
attr enum IDLE,DEFER,IFS_AND_BACKOFF
attr interpolationmode none
attr recordingmode vector
attr title "contention state changed"
attr type enum
vector 24 WSN_EnergyEfficient.sensorNode0.wlan[0].mac.dcf.recipientMacDataService packetDropDuplicateDetected:vector(packetBytes) ETV
attr interpolationmode none
attr recordingmode vector(packetBytes)
attr source packetDropReasonIsDuplicateDetected(packetDropped)
attr title "packet drops: duplicate detected, packetBytes"
vector 25 WSN_EnergyEfficient.sensorNode0.wlan[0].mac.dcf.recoveryProcedure contentionWindowChanged:vector ETV
attr interpolationmode sample-hold
attr recordingmode vector
attr title "contention window"
vector 26 WSN_EnergyEfficient.sensorNode0.wlan[0].mac.dcf packetSentToPeer:vector(packetBytes) ETV
attr interpolationmode none
attr recordingmode vector(packetBytes)
attr title "packets sent, packetBytes"
vector 27 WSN_EnergyEfficient.sensorNode0.wlan[0].mac.dcf packetSentToPeerUnicast:vector(packetBytes) ETV
attr interpolationmode none
attr recordingmode vector(packetBytes)
attr source ieee80211Unicast(packetSentToPeer)
attr title "packets sent: unicast, packetBytes"
vector 28 WSN_EnergyEfficient.sensorNode0.wlan[0].mac.dcf packetSentToPeerMulticast:vector(packetBytes) ETV
attr interpolationmode none
attr recordingmode vector(packetBytes)
attr source ieee80211Multicast(packetSentToPeer)
attr title "packets sent: multicast, packetBytes"
vector 29 WSN_EnergyEfficient.sensorNode0.wlan[0].mac.dcf packetSentToPeerBroadcast:vector(packetBytes) ETV
attr interpolationmode none
attr recordingmode vector(packetBytes)
attr source ieee80211Broadcast(packetSentToPeer)
attr title "packets sent: broadcast , packetBytes"
vector 30 WSN_EnergyEfficient.sensorNode0.wlan[0].mac.dcf packetSentToPeerWithRetry:vector(packetBytes) ETV
attr interpolationmode none
attr recordingmode vector(packetBytes)
attr source ieee80211Retry(packetSentToPeer)
attr title "packets sent: with retry, packetBytes"
vector 31 WSN_EnergyEfficient.sensorNode0.wlan[0].mac.dcf packetSentToPeerWithoutRetry:vector(packetBytes) ETV
attr interpolationmode none
attr recordingmode vector(packetBytes)
attr source ieee80211NotRetry(packetSentToPeer)
attr title "packets sent: without retry, packetBytes"
vector 32 WSN_EnergyEfficient.sensorNode0.wlan[0].mac.dcf packetReceivedFromPeer:vector(packetBytes) ETV
attr interpolationmode none
attr recordingmode vector(packetBytes)
attr title "packets received, packetBytes"
vector 33 WSN_EnergyEfficient.sensorNode0.wlan[0].mac.dcf packetReceivedFromPeerUnicast:vector(packetBytes) ETV
attr interpolationmode none
attr recordingmode vector(packetBytes)
attr source ieee80211Unicast(packetReceivedFromPeer)
attr title "packets received: unicast, packetBytes"
vector 34 WSN_EnergyEfficient.sensorNode0.wlan[0].mac.dcf packetReceivedFromPeerMulticast:vector(packetBytes) ETV
attr interpolationmode none
attr recordingmode vector(packetBytes)
attr source ieee80211Multicast(packetReceivedFromPeer)
attr title "packets received: multicast, packetBytes"
vector 35 WSN_EnergyEfficient.sensorNode0.wlan[0].mac.dcf packetReceivedFromPeerBroadcast:vector(packetBytes) ETV
attr interpolationmode none
attr recordingmode vector(packetBytes)
attr source ieee80211Broadcast(packetReceivedFromPeer)
attr title "packets received: broadcast, packetBytes"
vector 36 WSN_EnergyEfficient.sensorNode0.wlan[0].mac.dcf packetReceivedFromPeerWithRetry:vector(packetBytes) ETV
attr interpolationmode none
attr recordingmode vector(packetBytes)
attr source ieee80211Retry(packetReceivedFromPeer)
attr title "packets received: with retry, packetBytes"
vector 37 WSN_EnergyEfficient.sensorNode0.wlan[0].mac.dcf packetReceivedFromPeerWithoutRetry:vector(packetBytes) ETV
attr interpolationmode none
attr recordingmode vector(packetBytes)
attr source ieee80211NotRetry(packetReceivedFromPeer)
attr title "packets received: without retry, packetBytes"
vector 38 WSN_EnergyEfficient.sensorNode0.wlan[0].mac.dcf packetDrop:vector(packetBytes) ETV
attr interpolationmode none
attr recordingmode vector(packetBytes)
attr source packetDropped
attr title "packet drops, packetBytes"
vector 39 WSN_EnergyEfficient.sensorNode0.wlan[0].mac.dcf packetDropNotAddressedToUs:vector(packetBytes) ETV
attr interpolationmode none
attr recordingmode vector(packetBytes)
attr source packetDropReasonIsNotAddressedToUs(packetDropped)
attr title "packet drops: not addressed to us, packetBytes"
vector 40 WSN_EnergyEfficient.sensorNode0.wlan[0].mac.dcf packetDropQueueOverflow:vector(packetBytes) ETV
attr interpolationmode none
attr recordingmode vector(packetBytes)
attr source packetDropReasonIsQueueOverflow(packetDropped)
attr title "packet drops: queue overflow, packetBytes"
vector 41 WSN_EnergyEfficient.sensorNode0.wlan[0].mac.dcf packetDropRetryLimitReached:vector(packetBytes) ETV
attr interpolationmode none
attr recordingmode vector(packetBytes)
attr source packetDropReasonIsRetryLimitReached(packetDropped)
attr title "packet drops: retry limit reached, packetBytes"
vector 42 WSN_EnergyEfficient.sensorNode0.wlan[0].mac.dcf frameSequenceActive:vector ETV
attr autoWarmupFilter false
attr interpolationmode sample-hold
attr recordingmode vector
attr source warmup(count(frameSequenceStarted)-count(frameSequenceFinished))
attr title "frame sequence active"
vector 43 WSN_EnergyEfficient.sensorNode0.wlan[0].mac.dcf datarateSelected:vector ETV
attr interpolationmode none
attr recordingmode vector
attr title "datarates selected"
vector 44 WSN_EnergyEfficient.sensorNode0.wlan[0].mac.rx nav:vector ETV
attr interpolationmode linear
attr recordingmode vector
attr source navChanged
attr title "network allocation vector"
vector 45 WSN_EnergyEfficient.sensorNode0.wlan[0].mac packetSentToUpper:vector(packetBytes) ETV
attr interpolationmode none
attr recordingmode vector(packetBytes)
attr title "packets sent to upper layer, packetBytes"
vector 46 WSN_EnergyEfficient.sensorNode0.wlan[0].mac packetSentToLower:vector(packetBytes) ETV
attr interpolationmode none
attr recordingmode vector(packetBytes)
attr title "packets sent to lower layer, packetBytes"
vector 47 WSN_EnergyEfficient.sensorNode0.wlan[0].mac packetReceivedFromUpper:vector(packetBytes) ETV
attr interpolationmode none
attr recordingmode vector(packetBytes)
attr title "packets received from upper layer, packetBytes"
vector 48 WSN_EnergyEfficient.sensorNode0.wlan[0].mac packetReceivedFromLower:vector(packetBytes) ETV
attr interpolationmode none
attr recordingmode vector(packetBytes)
attr title "packets received from lower layer, packetBytes"
vector 49 WSN_EnergyEfficient.sensorNode0.wlan[0].mac packetDrop:vector(packetBytes) ETV
attr interpolationmode none
attr recordingmode vector(packetBytes)
attr source packetDropped
attr title "packet drops, packetBytes"
vector 50 WSN_EnergyEfficient.sensorNode0.wlan[0].mac packetDropIncorrectlyReceived:vector(packetBytes) ETV
attr interpolationmode none
attr recordingmode vector(packetBytes)
attr source packetDropReasonIsIncorrectlyReceived(packetDropped)
attr title "packet drops: incorrectly received, packetBytes"
vector 51 WSN_EnergyEfficient.sensorNode0.wlan[0].mac packetDropNotAddressedToUs:vector(packetBytes) ETV
attr interpolationmode none
attr recordingmode vector(packetBytes)
attr source packetDropReasonIsNotAddressedToUs(packetDropped)
attr title "packet drops: not addressed to us, packetBytes"
vector 52 WSN_EnergyEfficient.sensorNode0.wlan[0].mac packetDropQueueOverflow:vector(packetBytes) ETV
attr interpolationmode none
attr recordingmode vector(packetBytes)
attr source packetDropReasonIsQueueOverflow(packetDropped)
attr title "packet drops: queue overflow, packetBytes"
vector 53 WSN_EnergyEfficient.sensorNode0.wlan[0].mac packetDropRetryLimitReached:vector(packetBytes) ETV
attr interpolationmode none
attr recordingmode vector(packetBytes)
attr source packetDropReasonIsRetryLimitReached(packetDropped)
attr title "packet drops: retry limit reached, packetBytes"
vector 54 WSN_EnergyEfficient.sensorNode0.wlan[0].mac packetDropDuplicateDetected:vector(packetBytes) ETV
attr interpolationmode none
attr recordingmode vector(packetBytes)
attr source packetDropReasonIsDuplicateDetected(packetDropped)
attr title "packet drops: duplicate detected, packetBytes"
vector 55 WSN_EnergyEfficient.sensorNode0.wlan[0].mac packetDropOther:vector(packetBytes) ETV
attr interpolationmode none
attr recordingmode vector(packetBytes)
attr source packetDropReasonIsOther(packetDropped)
attr title "packet drops: other, packetBytes"
vector 56 WSN_EnergyEfficient.sensorNode0.wlan[0].radio.energyConsumer powerConsumption:vector ETV
attr interpolationmode sample-hold
attr recordingmode vector
attr source powerConsumptionChanged
attr title "Power consumption"
attr unit W
vector 57 WSN_EnergyEfficient.sensorNode0.wlan[0].radio radioMode:vector ETV
attr interpolationmode sample-hold
attr recordingmode vector
attr source radioModeChanged
attr title "Radio mode"
vector 58 WSN_EnergyEfficient.sensorNode0.wlan[0].radio receptionState:vector ETV
attr interpolationmode sample-hold
attr recordingmode vector
attr source receptionStateChanged
attr title "Radio reception state"
vector 59 WSN_EnergyEfficient.sensorNode0.wlan[0].radio transmissionState:vector ETV
attr interpolationmode sample-hold
attr recordingmode vector
attr source transmissionStateChanged
attr title "Radio transmission state"
vector 60 WSN_EnergyEfficient.sensorNode0.wlan[0].radio radioChannel:vector ETV
attr interpolationmode sample-hold
attr recordingmode vector
attr source radioChannelChanged
attr title "Radio channel"
vector 61 WSN_EnergyEfficient.sensorNode0.wlan[0] packetDropInterfaceDown:vector(packetBytes) ETV
attr interpolationmode none
attr recordingmode vector(packetBytes)
attr source packetDropReasonIsInterfaceDown(packetDropped)
attr title "packet drops: interface down, packetBytes"
vector 62 WSN_EnergyEfficient.sensorNode0.wlan[0] packetDropNoCarrier:vector(packetBytes) ETV
attr interpolationmode none
attr recordingmode vector(packetBytes)
attr source packetDropReasonIsNoCarrier(packetDropped)
attr title "packet drops: no carrier, packetBytes"
vector 63 WSN_EnergyEfficient.sensorNode0.ipv4.ip packetDropAddressResolutionFailed:vector(packetBytes) ETV
attr interpolationmode none
attr recordingmode vector(packetBytes)
attr source packetDropReasonIsAddressResolutionFailed(packetDropped)
attr title "packet drop: address resolution failed, packetBytes"
vector 64 WSN_EnergyEfficient.sensorNode0.ipv4.ip packetDropHopLimitReached:vector(packetBytes) ETV
attr interpolationmode none
attr recordingmode vector(packetBytes)
attr source packetDropReasonIsHopLimitReached(packetDropped)
attr title "packet drop: hop limit reached, packetBytes"
vector 65 WSN_EnergyEfficient.sensorNode0.ipv4.ip packetDropForwardingDisabled:vector(packetBytes) ETV
attr interpolationmode none
attr recordingmode vector(packetBytes)
attr source packetDropReasonIsForwardingDisabled(packetDropped)
attr title "packet drop: forwarding disabled, packetBytes"
vector 66 WSN_EnergyEfficient.sensorNode0.ipv4.ip packetDropNoInterfaceFound:vector(packetBytes) ETV
attr interpolationmode none
attr recordingmode vector(packetBytes)
attr source packetDropReasonIsNoInterfaceFound(packetDropped)
attr title "packet drop: no interface found, packetBytes"
vector 67 WSN_EnergyEfficient.sensorNode0.ipv4.ip packetDropNoRouteFound:vector(packetBytes) ETV
attr interpolationmode none
attr recordingmode vector(packetBytes)
attr source packetDropReasonIsNoRouteFound(packetDropped)
attr title "packet drop: no route found, packetBytes"
vector 68 WSN_EnergyEfficient.sensorNode0.ipv4.ip packetDropUndefined:vector(packetBytes) ETV
attr interpolationmode none
attr recordingmode vector(packetBytes)
attr source packetDropReasonIsUndefined(packetDropped)
attr title "packet drop: undefined, packetBytes"
vector 69 WSN_EnergyEfficient.sensorNode0.ipv4.arp arpRequestSent:vector(packetBytes) ETV
attr recordingmode vector(packetBytes)
attr source arpRequestSent
attr title "ARP request sent, packetBytes"
vector 70 WSN_EnergyEfficient.sensorNode0.ipv4.arp arpReplySent:vector(packetBytes) ETV
attr recordingmode vector(packetBytes)
attr source arpReplySent
attr title "ARP replies sent, packetBytes"
vector 71 WSN_EnergyEfficient.sensorNode0.udp packetSent:vector(packetBytes) ETV
attr interpolationmode none
attr recordingmode vector(packetBytes)
attr source packetSent
attr title "packets sent, packetBytes"
vector 72 WSN_EnergyEfficient.sensorNode0.udp packetReceived:vector(packetBytes) ETV
attr interpolationmode none
attr recordingmode vector(packetBytes)
attr source packetReceived
attr title "packets received, packetBytes"
vector 73 WSN_EnergyEfficient.sensorNode0.udp passedUpPk:vector(count) ETV
attr interpolationmode none
attr recordingmode vector(count)
attr source packetSentToUpper
attr title "packets passed up, count"
vector 74 WSN_EnergyEfficient.sensorNode0.udp droppedPkWrongPort:vector(count) ETV
attr interpolationmode none
attr recordingmode vector(count)
attr source packetDropReasonIsNoPortFound(packetDropped)
attr title "packets dropped (wrong port), count"
vector 75 WSN_EnergyEfficient.sensorNode0.udp droppedPkBadChecksum:vector(count) ETV
attr interpolationmode none
attr recordingmode vector(count)
attr source packetDropReasonIsIncorrectlyReceived(packetDropped)
attr title "packets dropped (checksum error), count"
vector 76 WSN_EnergyEfficient.sensorNode0.app[0] rtt:vector ETV
attr interpolationmode none
attr recordingmode vector
attr title "ping round-trip time"
attr unit s
vector 77 WSN_EnergyEfficient.sensorNode0.app[0] numLost:vector ETV
attr interpolationmode none
attr recordingmode vector
attr title "pings lost"
vector 78 WSN_EnergyEfficient.sensorNode0.app[0] numOutOfOrderArrivals:vector ETV
attr interpolationmode none
attr recordingmode vector
attr title "ping out-of-order arrivals"
vector 79 WSN_EnergyEfficient.sensorNode0.app[0] pingTxSeq:vector ETV
attr interpolationmode none
attr recordingmode vector
attr title "ping tx seq"
vector 80 WSN_EnergyEfficient.sensorNode0.app[0] pingRxSeq:vector ETV
attr interpolationmode none
attr recordingmode vector
attr title "ping rx seq"
vector 81 WSN_EnergyEfficient.sensorNode0.app[1] packetReceived:vector(packetBytes) ETV
attr interpolationmode none
attr recordingmode vector(packetBytes)
attr source packetReceived
attr title "packets received, packetBytes"
vector 82 WSN_EnergyEfficient.sensorNode0.app[1] throughput:vector ETV
attr recordingmode vector
attr source throughput(packetReceived)
attr title throughput
attr unit bps
vector 83 WSN_EnergyEfficient.sensorNode0.app[1] packetSent:vector(packetBytes) ETV
attr interpolationmode none
attr recordingmode vector(packetBytes)
attr source packetSent
attr title "packets sent, packetBytes"
vector 84 WSN_EnergyEfficient.sensorNode0.app[1] rcvdPkLifetime:vector ETV
attr interpolationmode none
attr recordingmode vector
attr source dataAge(packetReceived)
attr title "received packet lifetime"
attr unit s
vector 85 WSN_EnergyEfficient.sensorNode0.app[1] rcvdPkSeqNo:vector ETV
attr interpolationmode none
attr recordingmode vector
attr source appPkSeqNo(packetReceived)
attr title "received packet sequence number"
vector 86 WSN_EnergyEfficient.sensorNode1.energyStorage powerConsumption:vector ETV
attr interpolationmode sample-hold
attr recordingmode vector
attr source powerConsumptionChanged
attr title "Power consumption"
attr unit W
vector 87 WSN_EnergyEfficient.sensorNode1.energyStorage powerGeneration:vector ETV
attr interpolationmode sample-hold
attr recordingmode vector
attr source powerGenerationChanged
attr title "Power generation"
attr unit W
vector 88 WSN_EnergyEfficient.sensorNode1.energyStorage residualEnergyCapacity:vector ETV
attr interpolationmode linear
attr recordingmode vector
attr source residualEnergyCapacityChanged
attr title "Residual energy capacity"
attr unit J
vector 89 WSN_EnergyEfficient.sensorNode1.energyGenerator powerGeneration:vector ETV
attr interpolationmode sample-hold
attr recordingmode vector
attr source powerGenerationChanged
attr title "Power generation"
attr unit W
vector 90 WSN_EnergyEfficient.sensorNode1.lo[0].lo rcvdPkFromHl:vector(packetBytes) ETV
attr interpolationmode none
attr recordingmode vector(packetBytes)
attr source packetReceivedFromUpper
attr title "packets received from higher layer, packetBytes"
vector 91 WSN_EnergyEfficient.sensorNode1.lo[0].lo passedUpPk:vector(packetBytes) ETV
attr interpolationmode none
attr recordingmode vector(packetBytes)
attr source packetSentToUpper
attr title "packets passed to higher layer, packetBytes"
vector 92 WSN_EnergyEfficient.sensorNode1.lo[0] packetDropInterfaceDown:vector(packetBytes) ETV
attr interpolationmode none
attr recordingmode vector(packetBytes)
attr source packetDropReasonIsInterfaceDown(packetDropped)
attr title "packet drops: interface down, packetBytes"
vector 93 WSN_EnergyEfficient.sensorNode1.lo[0] packetDropNoCarrier:vector(packetBytes) ETV
attr interpolationmode none
attr recordingmode vector(packetBytes)
attr source packetDropReasonIsNoCarrier(packetDropped)
attr title "packet drops: no carrier, packetBytes"
vector 94 WSN_EnergyEfficient.sensorNode1.wlan[0].mac.dcf.channelAccess.pendingQueue queueLength:vector ETV
attr autoWarmupFilter false
attr interpolationmode sample-hold
attr recordingmode vector
attr source "warmup(atomic(constant0(packetPushEnded) + count(packetPushStarted) - count(packetPulled) - count(packetRemoved) - count(packetDropped)))"
attr title "queue length"
attr unit pk
vector 95 WSN_EnergyEfficient.sensorNode1.wlan[0].mac.dcf.channelAccess.pendingQueue queueBitLength:vector ETV
attr autoWarmupFilter false
attr interpolationmode sample-hold
attr recordingmode vector
attr source "warmup(atomic(constant0(packetPushEnded) + sum(packetLength(packetPushStarted)) - sum(packetLength(packetPulled)) - sum(packetLength(packetRemoved)) - sum(packetLength(packetDropped))))"
attr title "queue bit length"
attr unit b
vector 96 WSN_EnergyEfficient.sensorNode1.wlan[0].mac.dcf.channelAccess.pendingQueue queueingTime:vector ETV
attr interpolationmode none
attr recordingmode vector
attr source queueingTime(packetPulled)
attr title "queueing times"
attr unit s
vector 97 WSN_EnergyEfficient.sensorNode1.wlan[0].mac.dcf.channelAccess.pendingQueue incomingPacketLengths:vector ETV
attr interpolationmode none
attr recordingmode vector
attr source packetLength(packetPushStarted)
attr title "incoming packet lengths"
attr unit b
vector 98 WSN_EnergyEfficient.sensorNode1.wlan[0].mac.dcf.channelAccess.pendingQueue incomingDataRate:vector ETV
attr interpolationmode linear
attr recordingmode vector
attr source throughput(packetPushStarted)
attr title "incoming datarate"
attr unit bps
vector 99 WSN_EnergyEfficient.sensorNode1.wlan[0].mac.dcf.channelAccess.pendingQueue outgoingPacketLengths:vector ETV
attr interpolationmode none
attr recordingmode vector
attr source packetLength(packetPulled)
attr title "outgoing packet lengths"
attr unit b
vector 100 WSN_EnergyEfficient.sensorNode1.wlan[0].mac.dcf.channelAccess.pendingQueue outgoingDataRate:vector ETV
attr interpolationmode linear
attr recordingmode vector
attr source throughput(packetPulled)
attr title "outgoing datarate"
attr unit bps
vector 101 WSN_EnergyEfficient.sensorNode1.wlan[0].mac.dcf.channelAccess.pendingQueue droppedPacketLengthsQueueOverflow:vector ETV
attr interpolationmode none
attr recordingmode vector
attr source packetLength(packetDropReasonIsQueueOverflow(packetDropped))
attr title "dropped packet lengths: queue overflow"
attr unit b
vector 102 WSN_EnergyEfficient.sensorNode1.wlan[0].mac.dcf.channelAccess.pendingQueue flowQueueingTime:vector ETV
attr interpolationmode none
attr recordingmode vector
attr source queueingTime(demuxFlow(packetPulled))
attr title "flow queueing times"
attr unit s
vector 103 WSN_EnergyEfficient.sensorNode1.wlan[0].mac.dcf.channelAccess.pendingQueue flowIncomingDataRate:vector ETV
attr interpolationmode linear
attr recordingmode vector
attr source throughput(flowPacketLength(demuxFlow(packetPushStarted)))
attr title "flow specific incoming data rate"
attr unit bps
vector 104 WSN_EnergyEfficient.sensorNode1.wlan[0].mac.dcf.channelAccess.pendingQueue flowOutgoingDataRate:vector ETV
attr interpolationmode linear
attr recordingmode vector
attr source throughput(flowPacketLength(demuxFlow(packetPulled)))
attr title "flow specific outgoing data rate"
attr unit bps
vector 105 WSN_EnergyEfficient.sensorNode1.wlan[0].mac.dcf.channelAccess.inProgressFrames queueingTime:vector ETV
attr interpolationmode none
attr recordingmode vector
attr source queueingTime(packetDequeued)
attr title "queueing times"
vector 106 WSN_EnergyEfficient.sensorNode1.wlan[0].mac.dcf.channelAccess.inProgressFrames queueLength:vector ETV
attr autoWarmupFilter false
attr interpolationmode sample-hold
attr recordingmode vector
attr source "warmup(count(packetEnqueued) - count(packetDequeued))"
attr title "queue length"
vector 107 WSN_EnergyEfficient.sensorNode1.wlan[0].mac.dcf.channelAccess.contention backoffPeriodGenerated:vector ETV
attr interpolationmode none
attr recordingmode vector
attr title "backoff periods"
vector 108 WSN_EnergyEfficient.sensorNode1.wlan[0].mac.dcf.channelAccess.contention backoffActive:vector ETV
attr autoWarmupFilter false
attr interpolationmode sample-hold
attr recordingmode vector
attr source warmup(count(backoffStarted)-count(backoffStopped))
attr title "backoff active"
vector 109 WSN_EnergyEfficient.sensorNode1.wlan[0].mac.dcf.channelAccess.contention stateChanged:vector ETV
attr enum IDLE,DEFER,IFS_AND_BACKOFF
attr interpolationmode none
attr recordingmode vector
attr title "contention state changed"
attr type enum
vector 110 WSN_EnergyEfficient.sensorNode1.wlan[0].mac.dcf.recipientMacDataService packetDropDuplicateDetected:vector(packetBytes) ETV
attr interpolationmode none
attr recordingmode vector(packetBytes)
attr source packetDropReasonIsDuplicateDetected(packetDropped)
attr title "packet drops: duplicate detected, packetBytes"
vector 111 WSN_EnergyEfficient.sensorNode1.wlan[0].mac.dcf.recoveryProcedure contentionWindowChanged:vector ETV
attr interpolationmode sample-hold
attr recordingmode vector
attr title "contention window"
vector 112 WSN_EnergyEfficient.sensorNode1.wlan[0].mac.dcf packetSentToPeer:vector(packetBytes) ETV
attr interpolationmode none
attr recordingmode vector(packetBytes)
attr title "packets sent, packetBytes"
vector 113 WSN_EnergyEfficient.sensorNode1.wlan[0].mac.dcf packetSentToPeerUnicast:vector(packetBytes) ETV
attr interpolationmode none
attr recordingmode vector(packetBytes)
attr source ieee80211Unicast(packetSentToPeer)
attr title "packets sent: unicast, packetBytes"
vector 114 WSN_EnergyEfficient.sensorNode1.wlan[0].mac.dcf packetSentToPeerMulticast:vector(packetBytes) ETV
attr interpolationmode none
attr recordingmode vector(packetBytes)
attr source ieee80211Multicast(packetSentToPeer)
attr title "packets sent: multicast, packetBytes"
vector 115 WSN_EnergyEfficient.sensorNode1.wlan[0].mac.dcf packetSentToPeerBroadcast:vector(packetBytes) ETV
attr interpolationmode none
attr recordingmode vector(packetBytes)
attr source ieee80211Broadcast(packetSentToPeer)
attr title "packets sent: broadcast , packetBytes"
vector 116 WSN_EnergyEfficient.sensorNode1.wlan[0].mac.dcf packetSentToPeerWithRetry:vector(packetBytes) ETV
attr interpolationmode none
attr recordingmode vector(packetBytes)
attr source ieee80211Retry(packetSentToPeer)
attr title "packets sent: with retry, packetBytes"
vector 117 WSN_EnergyEfficient.sensorNode1.wlan[0].mac.dcf packetSentToPeerWithoutRetry:vector(packetBytes) ETV
attr interpolationmode none
attr recordingmode vector(packetBytes)
attr source ieee80211NotRetry(packetSentToPeer)
attr title "packets sent: without retry, packetBytes"
vector 118 WSN_EnergyEfficient.sensorNode1.wlan[0].mac.dcf packetReceivedFromPeer:vector(packetBytes) ETV
attr interpolationmode none
attr recordingmode vector(packetBytes)
attr title "packets received, packetBytes"
vector 119 WSN_EnergyEfficient.sensorNode1.wlan[0].mac.dcf packetReceivedFromPeerUnicast:vector(packetBytes) ETV
attr interpolationmode none
attr recordingmode vector(packetBytes)
attr source ieee80211Unicast(packetReceivedFromPeer)
attr title "packets received: unicast, packetBytes"
vector 120 WSN_EnergyEfficient.sensorNode1.wlan[0].mac.dcf packetReceivedFromPeerMulticast:vector(packetBytes) ETV
attr interpolationmode none
attr recordingmode vector(packetBytes)
attr source ieee80211Multicast(packetReceivedFromPeer)
attr title "packets received: multicast, packetBytes"
vector 121 WSN_EnergyEfficient.sensorNode1.wlan[0].mac.dcf packetReceivedFromPeerBroadcast:vector(packetBytes) ETV
attr interpolationmode none
attr recordingmode vector(packetBytes)
attr source ieee80211Broadcast(packetReceivedFromPeer)
attr title "packets received: broadcast, packetBytes"
vector 122 WSN_EnergyEfficient.sensorNode1.wlan[0].mac.dcf packetReceivedFromPeerWithRetry:vector(packetBytes) ETV
attr interpolationmode none
attr recordingmode vector(packetBytes)
attr source ieee80211Retry(packetReceivedFromPeer)
attr title "packets received: with retry, packetBytes"
vector 123 WSN_EnergyEfficient.sensorNode1.wlan[0].mac.dcf packetReceivedFromPeerWithoutRetry:vector(packetBytes) ETV
attr interpolationmode none
attr recordingmode vector(packetBytes)
attr source ieee80211NotRetry(packetReceivedFromPeer)
attr title "packets received: without retry, packetBytes"
vector 124 WSN_EnergyEfficient.sensorNode1.wlan[0].mac.dcf packetDrop:vector(packetBytes) ETV
attr interpolationmode none
attr recordingmode vector(packetBytes)
attr source packetDropped
attr title "packet drops, packetBytes"
vector 125 WSN_EnergyEfficient.sensorNode1.wlan[0].mac.dcf packetDropNotAddressedToUs:vector(packetBytes) ETV
attr interpolationmode none
attr recordingmode vector(packetBytes)
attr source packetDropReasonIsNotAddressedToUs(packetDropped)
attr title "packet drops: not addressed to us, packetBytes"
vector 126 WSN_EnergyEfficient.sensorNode1.wlan[0].mac.dcf packetDropQueueOverflow:vector(packetBytes) ETV
attr interpolationmode none
attr recordingmode vector(packetBytes)
attr source packetDropReasonIsQueueOverflow(packetDropped)
attr title "packet drops: queue overflow, packetBytes"
vector 127 WSN_EnergyEfficient.sensorNode1.wlan[0].mac.dcf packetDropRetryLimitReached:vector(packetBytes) ETV
attr interpolationmode none
attr recordingmode vector(packetBytes)
attr source packetDropReasonIsRetryLimitReached(packetDropped)
attr title "packet drops: retry limit reached, packetBytes"
vector 128 WSN_EnergyEfficient.sensorNode1.wlan[0].mac.dcf frameSequenceActive:vector ETV
attr autoWarmupFilter false
attr interpolationmode sample-hold
attr recordingmode vector
attr source warmup(count(frameSequenceStarted)-count(frameSequenceFinished))
attr title "frame sequence active"
vector 129 WSN_EnergyEfficient.sensorNode1.wlan[0].mac.dcf datarateSelected:vector ETV
attr interpolationmode none
attr recordingmode vector
attr title "datarates selected"
vector 130 WSN_EnergyEfficient.sensorNode1.wlan[0].mac.rx nav:vector ETV
attr interpolationmode linear
attr recordingmode vector
attr source navChanged
attr title "network allocation vector"
vector 131 WSN_EnergyEfficient.sensorNode1.wlan[0].mac packetSentToUpper:vector(packetBytes) ETV
attr interpolationmode none
attr recordingmode vector(packetBytes)
attr title "packets sent to upper layer, packetBytes"
vector 132 WSN_EnergyEfficient.sensorNode1.wlan[0].mac packetSentToLower:vector(packetBytes) ETV
attr interpolationmode none
attr recordingmode vector(packetBytes)
attr title "packets sent to lower layer, packetBytes"
vector 133 WSN_EnergyEfficient.sensorNode1.wlan[0].mac packetReceivedFromUpper:vector(packetBytes) ETV
attr interpolationmode none
attr recordingmode vector(packetBytes)
attr title "packets received from upper layer, packetBytes"
vector 134 WSN_EnergyEfficient.sensorNode1.wlan[0].mac packetReceivedFromLower:vector(packetBytes) ETV
attr interpolationmode none
attr recordingmode vector(packetBytes)
attr title "packets received from lower layer, packetBytes"
vector 135 WSN_EnergyEfficient.sensorNode1.wlan[0].mac packetDrop:vector(packetBytes) ETV
attr interpolationmode none
attr recordingmode vector(packetBytes)
attr source packetDropped
attr title "packet drops, packetBytes"
vector 136 WSN_EnergyEfficient.sensorNode1.wlan[0].mac packetDropIncorrectlyReceived:vector(packetBytes) ETV
attr interpolationmode none
attr recordingmode vector(packetBytes)
attr source packetDropReasonIsIncorrectlyReceived(packetDropped)
attr title "packet drops: incorrectly received, packetBytes"
vector 137 WSN_EnergyEfficient.sensorNode1.wlan[0].mac packetDropNotAddressedToUs:vector(packetBytes) ETV
attr interpolationmode none
attr recordingmode vector(packetBytes)
attr source packetDropReasonIsNotAddressedToUs(packetDropped)
attr title "packet drops: not addressed to us, packetBytes"
vector 138 WSN_EnergyEfficient.sensorNode1.wlan[0].mac packetDropQueueOverflow:vector(packetBytes) ETV
attr interpolationmode none
attr recordingmode vector(packetBytes)
attr source packetDropReasonIsQueueOverflow(packetDropped)
attr title "packet drops: queue overflow, packetBytes"
vector 139 WSN_EnergyEfficient.sensorNode1.wlan[0].mac packetDropRetryLimitReached:vector(packetBytes) ETV
attr interpolationmode none
attr recordingmode vector(packetBytes)
attr source packetDropReasonIsRetryLimitReached(packetDropped)
attr title "packet drops: retry limit reached, packetBytes"
vector 140 WSN_EnergyEfficient.sensorNode1.wlan[0].mac packetDropDuplicateDetected:vector(packetBytes) ETV
attr interpolationmode none
attr recordingmode vector(packetBytes)
attr source packetDropReasonIsDuplicateDetected(packetDropped)
attr title "packet drops: duplicate detected, packetBytes"
vector 141 WSN_EnergyEfficient.sensorNode1.wlan[0].mac packetDropOther:vector(packetBytes) ETV
attr interpolationmode none
attr recordingmode vector(packetBytes)
attr source packetDropReasonIsOther(packetDropped)
attr title "packet drops: other, packetBytes"
vector 142 WSN_EnergyEfficient.sensorNode1.wlan[0].radio.energyConsumer powerConsumption:vector ETV
attr interpolationmode sample-hold
attr recordingmode vector
attr source powerConsumptionChanged
attr title "Power consumption"
attr unit W
vector 143 WSN_EnergyEfficient.sensorNode1.wlan[0].radio radioMode:vector ETV
attr interpolationmode sample-hold
attr recordingmode vector
attr source radioModeChanged
attr title "Radio mode"
vector 144 WSN_EnergyEfficient.sensorNode1.wlan[0].radio receptionState:vector ETV
attr interpolationmode sample-hold
attr recordingmode vector
attr source receptionStateChanged
attr title "Radio reception state"
vector 145 WSN_EnergyEfficient.sensorNode1.wlan[0].radio transmissionState:vector ETV
attr interpolationmode sample-hold
attr recordingmode vector
attr source transmissionStateChanged
attr title "Radio transmission state"
vector 146 WSN_EnergyEfficient.sensorNode1.wlan[0].radio radioChannel:vector ETV
attr interpolationmode sample-hold
attr recordingmode vector
attr source radioChannelChanged
attr title "Radio channel"
vector 147 WSN_EnergyEfficient.sensorNode1.wlan[0] packetDropInterfaceDown:vector(packetBytes) ETV
attr interpolationmode none
attr recordingmode vector(packetBytes)
attr source packetDropReasonIsInterfaceDown(packetDropped)
attr title "packet drops: interface down, packetBytes"
vector 148 WSN_EnergyEfficient.sensorNode1.wlan[0] packetDropNoCarrier:vector(packetBytes) ETV
attr interpolationmode none
attr recordingmode vector(packetBytes)
attr source packetDropReasonIsNoCarrier(packetDropped)
attr title "packet drops: no carrier, packetBytes"
vector 149 WSN_EnergyEfficient.sensorNode1.ipv4.ip packetDropAddressResolutionFailed:vector(packetBytes) ETV
attr interpolationmode none
attr recordingmode vector(packetBytes)
attr source packetDropReasonIsAddressResolutionFailed(packetDropped)
attr title "packet drop: address resolution failed, packetBytes"
vector 150 WSN_EnergyEfficient.sensorNode1.ipv4.ip packetDropHopLimitReached:vector(packetBytes) ETV
attr interpolationmode none
attr recordingmode vector(packetBytes)
attr source packetDropReasonIsHopLimitReached(packetDropped)
attr title "packet drop: hop limit reached, packetBytes"
vector 151 WSN_EnergyEfficient.sensorNode1.ipv4.ip packetDropForwardingDisabled:vector(packetBytes) ETV
attr interpolationmode none
attr recordingmode vector(packetBytes)
attr source packetDropReasonIsForwardingDisabled(packetDropped)
attr title "packet drop: forwarding disabled, packetBytes"
vector 152 WSN_EnergyEfficient.sensorNode1.ipv4.ip packetDropNoInterfaceFound:vector(packetBytes) ETV
attr interpolationmode none
attr recordingmode vector(packetBytes)
attr source packetDropReasonIsNoInterfaceFound(packetDropped)
attr title "packet drop: no interface found, packetBytes"
vector 153 WSN_EnergyEfficient.sensorNode1.ipv4.ip packetDropNoRouteFound:vector(packetBytes) ETV
attr interpolationmode none
attr recordingmode vector(packetBytes)
attr source packetDropReasonIsNoRouteFound(packetDropped)
attr title "packet drop: no route found, packetBytes"
vector 154 WSN_EnergyEfficient.sensorNode1.ipv4.ip packetDropUndefined:vector(packetBytes) ETV
attr interpolationmode none
attr recordingmode vector(packetBytes)
attr source packetDropReasonIsUndefined(packetDropped)
attr title "packet drop: undefined, packetBytes"
vector 155 WSN_EnergyEfficient.sensorNode1.ipv4.arp arpRequestSent:vector(packetBytes) ETV
attr recordingmode vector(packetBytes)
attr source arpRequestSent
attr title "ARP request sent, packetBytes"
vector 156 WSN_EnergyEfficient.sensorNode1.ipv4.arp arpReplySent:vector(packetBytes) ETV
attr recordingmode vector(packetBytes)
attr source arpReplySent
attr title "ARP replies sent, packetBytes"
vector 157 WSN_EnergyEfficient.sensorNode1.udp packetSent:vector(packetBytes) ETV
attr interpolationmode none
attr recordingmode vector(packetBytes)
attr source packetSent
attr title "packets sent, packetBytes"
vector 158 WSN_EnergyEfficient.sensorNode1.udp packetReceived:vector(packetBytes) ETV
attr interpolationmode none
attr recordingmode vector(packetBytes)
attr source packetReceived
attr title "packets received, packetBytes"
vector 159 WSN_EnergyEfficient.sensorNode1.udp passedUpPk:vector(count) ETV
attr interpolationmode none
attr recordingmode vector(count)
attr source packetSentToUpper
attr title "packets passed up, count"
vector 160 WSN_EnergyEfficient.sensorNode1.udp droppedPkWrongPort:vector(count) ETV
attr interpolationmode none
attr recordingmode vector(count)
attr source packetDropReasonIsNoPortFound(packetDropped)
attr title "packets dropped (wrong port), count"
vector 161 WSN_EnergyEfficient.sensorNode1.udp droppedPkBadChecksum:vector(count) ETV
attr interpolationmode none
attr recordingmode vector(count)
attr source packetDropReasonIsIncorrectlyReceived(packetDropped)
attr title "packets dropped (checksum error), count"
vector 162 WSN_EnergyEfficient.sensorNode1.app[0] rtt:vector ETV
attr interpolationmode none
attr recordingmode vector
attr title "ping round-trip time"
attr unit s
vector 163 WSN_EnergyEfficient.sensorNode1.app[0] numLost:vector ETV
attr interpolationmode none
attr recordingmode vector
attr title "pings lost"
vector 164 WSN_EnergyEfficient.sensorNode1.app[0] numOutOfOrderArrivals:vector ETV
attr interpolationmode none
attr recordingmode vector
attr title "ping out-of-order arrivals"
vector 165 WSN_EnergyEfficient.sensorNode1.app[0] pingTxSeq:vector ETV
attr interpolationmode none
attr recordingmode vector
attr title "ping tx seq"
vector 166 WSN_EnergyEfficient.sensorNode1.app[0] pingRxSeq:vector ETV
attr interpolationmode none
attr recordingmode vector
attr title "ping rx seq"
vector 167 WSN_EnergyEfficient.sensorNode1.app[1] packetReceived:vector(packetBytes) ETV
attr interpolationmode none
attr recordingmode vector(packetBytes)
attr source packetReceived
attr title "packets received, packetBytes"
vector 168 WSN_EnergyEfficient.sensorNode1.app[1] throughput:vector ETV
attr recordingmode vector
attr source throughput(packetReceived)
attr title throughput
attr unit bps
vector 169 WSN_EnergyEfficient.sensorNode1.app[1] packetSent:vector(packetBytes) ETV
attr interpolationmode none
attr recordingmode vector(packetBytes)
attr source packetSent
attr title "packets sent, packetBytes"
vector 170 WSN_EnergyEfficient.sensorNode1.app[1] rcvdPkLifetime:vector ETV
attr interpolationmode none
attr recordingmode vector
attr source dataAge(packetReceived)
attr title "received packet lifetime"
attr unit s
vector 171 WSN_EnergyEfficient.sensorNode1.app[1] rcvdPkSeqNo:vector ETV
attr interpolationmode none
attr recordingmode vector
attr source appPkSeqNo(packetReceived)
attr title "received packet sequence number"
vector 172 WSN_EnergyEfficient.sensorNode2.energyStorage powerConsumption:vector ETV
attr interpolationmode sample-hold
attr recordingmode vector
attr source powerConsumptionChanged
attr title "Power consumption"
attr unit W
vector 173 WSN_EnergyEfficient.sensorNode2.energyStorage powerGeneration:vector ETV
attr interpolationmode sample-hold
attr recordingmode vector
attr source powerGenerationChanged
attr title "Power generation"
attr unit W
vector 174 WSN_EnergyEfficient.sensorNode2.energyStorage residualEnergyCapacity:vector ETV
attr interpolationmode linear
attr recordingmode vector
attr source residualEnergyCapacityChanged
attr title "Residual energy capacity"
attr unit J
vector 175 WSN_EnergyEfficient.sensorNode2.energyGenerator powerGeneration:vector ETV
attr interpolationmode sample-hold
attr recordingmode vector
attr source powerGenerationChanged
attr title "Power generation"
attr unit W
vector 176 WSN_EnergyEfficient.sensorNode2.lo[0].lo rcvdPkFromHl:vector(packetBytes) ETV
attr interpolationmode none
attr recordingmode vector(packetBytes)
attr source packetReceivedFromUpper
attr title "packets received from higher layer, packetBytes"
vector 177 WSN_EnergyEfficient.sensorNode2.lo[0].lo passedUpPk:vector(packetBytes) ETV
attr interpolationmode none
attr recordingmode vector(packetBytes)
attr source packetSentToUpper
attr title "packets passed to higher layer, packetBytes"
vector 178 WSN_EnergyEfficient.sensorNode2.lo[0] packetDropInterfaceDown:vector(packetBytes) ETV
attr interpolationmode none
attr recordingmode vector(packetBytes)
attr source packetDropReasonIsInterfaceDown(packetDropped)
attr title "packet drops: interface down, packetBytes"
vector 179 WSN_EnergyEfficient.sensorNode2.lo[0] packetDropNoCarrier:vector(packetBytes) ETV
attr interpolationmode none
attr recordingmode vector(packetBytes)
attr source packetDropReasonIsNoCarrier(packetDropped)
attr title "packet drops: no carrier, packetBytes"
vector 180 WSN_EnergyEfficient.sensorNode2.wlan[0].mac.dcf.channelAccess.pendingQueue queueLength:vector ETV
attr autoWarmupFilter false
attr interpolationmode sample-hold
attr recordingmode vector
attr source "warmup(atomic(constant0(packetPushEnded) + count(packetPushStarted) - count(packetPulled) - count(packetRemoved) - count(packetDropped)))"
attr title "queue length"
attr unit pk
vector 181 WSN_EnergyEfficient.sensorNode2.wlan[0].mac.dcf.channelAccess.pendingQueue queueBitLength:vector ETV
attr autoWarmupFilter false
attr interpolationmode sample-hold
attr recordingmode vector
attr source "warmup(atomic(constant0(packetPushEnded) + sum(packetLength(packetPushStarted)) - sum(packetLength(packetPulled)) - sum(packetLength(packetRemoved)) - sum(packetLength(packetDropped))))"
attr title "queue bit length"
attr unit b
vector 182 WSN_EnergyEfficient.sensorNode2.wlan[0].mac.dcf.channelAccess.pendingQueue queueingTime:vector ETV
attr interpolationmode none
attr recordingmode vector
attr source queueingTime(packetPulled)
attr title "queueing times"
attr unit s
vector 183 WSN_EnergyEfficient.sensorNode2.wlan[0].mac.dcf.channelAccess.pendingQueue incomingPacketLengths:vector ETV
attr interpolationmode none
attr recordingmode vector
attr source packetLength(packetPushStarted)
attr title "incoming packet lengths"
attr unit b
vector 184 WSN_EnergyEfficient.sensorNode2.wlan[0].mac.dcf.channelAccess.pendingQueue incomingDataRate:vector ETV
attr interpolationmode linear
attr recordingmode vector
attr source throughput(packetPushStarted)
attr title "incoming datarate"
attr unit bps
vector 185 WSN_EnergyEfficient.sensorNode2.wlan[0].mac.dcf.channelAccess.pendingQueue outgoingPacketLengths:vector ETV
attr interpolationmode none
attr recordingmode vector
attr source packetLength(packetPulled)
attr title "outgoing packet lengths"
attr unit b
vector 186 WSN_EnergyEfficient.sensorNode2.wlan[0].mac.dcf.channelAccess.pendingQueue outgoingDataRate:vector ETV
attr interpolationmode linear
attr recordingmode vector
attr source throughput(packetPulled)
attr title "outgoing datarate"
attr unit bps
vector 187 WSN_EnergyEfficient.sensorNode2.wlan[0].mac.dcf.channelAccess.pendingQueue droppedPacketLengthsQueueOverflow:vector ETV
attr interpolationmode none
attr recordingmode vector
attr source packetLength(packetDropReasonIsQueueOverflow(packetDropped))
attr title "dropped packet lengths: queue overflow"
attr unit b
vector 188 WSN_EnergyEfficient.sensorNode2.wlan[0].mac.dcf.channelAccess.pendingQueue flowQueueingTime:vector ETV
attr interpolationmode none
attr recordingmode vector
attr source queueingTime(demuxFlow(packetPulled))
attr title "flow queueing times"
attr unit s
vector 189 WSN_EnergyEfficient.sensorNode2.wlan[0].mac.dcf.channelAccess.pendingQueue flowIncomingDataRate:vector ETV
attr interpolationmode linear
attr recordingmode vector
attr source throughput(flowPacketLength(demuxFlow(packetPushStarted)))
attr title "flow specific incoming data rate"
attr unit bps
vector 190 WSN_EnergyEfficient.sensorNode2.wlan[0].mac.dcf.channelAccess.pendingQueue flowOutgoingDataRate:vector ETV
attr interpolationmode linear
attr recordingmode vector
attr source throughput(flowPacketLength(demuxFlow(packetPulled)))
attr title "flow specific outgoing data rate"
attr unit bps
vector 191 WSN_EnergyEfficient.sensorNode2.wlan[0].mac.dcf.channelAccess.inProgressFrames queueingTime:vector ETV
attr interpolationmode none
attr recordingmode vector
attr source queueingTime(packetDequeued)
attr title "queueing times"
vector 192 WSN_EnergyEfficient.sensorNode2.wlan[0].mac.dcf.channelAccess.inProgressFrames queueLength:vector ETV
attr autoWarmupFilter false
attr interpolationmode sample-hold
attr recordingmode vector
attr source "warmup(count(packetEnqueued) - count(packetDequeued))"
attr title "queue length"
vector 193 WSN_EnergyEfficient.sensorNode2.wlan[0].mac.dcf.channelAccess.contention backoffPeriodGenerated:vector ETV
attr interpolationmode none
attr recordingmode vector
attr title "backoff periods"
vector 194 WSN_EnergyEfficient.sensorNode2.wlan[0].mac.dcf.channelAccess.contention backoffActive:vector ETV
attr autoWarmupFilter false
attr interpolationmode sample-hold
attr recordingmode vector
attr source warmup(count(backoffStarted)-count(backoffStopped))
attr title "backoff active"
vector 195 WSN_EnergyEfficient.sensorNode2.wlan[0].mac.dcf.channelAccess.contention stateChanged:vector ETV
attr enum IDLE,DEFER,IFS_AND_BACKOFF
attr interpolationmode none
attr recordingmode vector
attr title "contention state changed"
attr type enum
vector 196 WSN_EnergyEfficient.sensorNode2.wlan[0].mac.dcf.recipientMacDataService packetDropDuplicateDetected:vector(packetBytes) ETV
attr interpolationmode none
attr recordingmode vector(packetBytes)
attr source packetDropReasonIsDuplicateDetected(packetDropped)
attr title "packet drops: duplicate detected, packetBytes"
vector 197 WSN_EnergyEfficient.sensorNode2.wlan[0].mac.dcf.recoveryProcedure contentionWindowChanged:vector ETV
attr interpolationmode sample-hold
attr recordingmode vector
attr title "contention window"
vector 198 WSN_EnergyEfficient.sensorNode2.wlan[0].mac.dcf packetSentToPeer:vector(packetBytes) ETV
attr interpolationmode none
attr recordingmode vector(packetBytes)
attr title "packets sent, packetBytes"
vector 199 WSN_EnergyEfficient.sensorNode2.wlan[0].mac.dcf packetSentToPeerUnicast:vector(packetBytes) ETV
attr interpolationmode none
attr recordingmode vector(packetBytes)
attr source ieee80211Unicast(packetSentToPeer)
attr title "packets sent: unicast, packetBytes"
vector 200 WSN_EnergyEfficient.sensorNode2.wlan[0].mac.dcf packetSentToPeerMulticast:vector(packetBytes) ETV
attr interpolationmode none
attr recordingmode vector(packetBytes)
attr source ieee80211Multicast(packetSentToPeer)
attr title "packets sent: multicast, packetBytes"
vector 201 WSN_EnergyEfficient.sensorNode2.wlan[0].mac.dcf packetSentToPeerBroadcast:vector(packetBytes) ETV
attr interpolationmode none
attr recordingmode vector(packetBytes)
attr source ieee80211Broadcast(packetSentToPeer)
attr title "packets sent: broadcast , packetBytes"
vector 202 WSN_EnergyEfficient.sensorNode2.wlan[0].mac.dcf packetSentToPeerWithRetry:vector(packetBytes) ETV
attr interpolationmode none
attr recordingmode vector(packetBytes)
attr source ieee80211Retry(packetSentToPeer)
attr title "packets sent: with retry, packetBytes"
vector 203 WSN_EnergyEfficient.sensorNode2.wlan[0].mac.dcf packetSentToPeerWithoutRetry:vector(packetBytes) ETV
attr interpolationmode none
attr recordingmode vector(packetBytes)
attr source ieee80211NotRetry(packetSentToPeer)
attr title "packets sent: without retry, packetBytes"
vector 204 WSN_EnergyEfficient.sensorNode2.wlan[0].mac.dcf packetReceivedFromPeer:vector(packetBytes) ETV
attr interpolationmode none
attr recordingmode vector(packetBytes)
attr title "packets received, packetBytes"
vector 205 WSN_EnergyEfficient.sensorNode2.wlan[0].mac.dcf packetReceivedFromPeerUnicast:vector(packetBytes) ETV
attr interpolationmode none
attr recordingmode vector(packetBytes)
attr source ieee80211Unicast(packetReceivedFromPeer)
attr title "packets received: unicast, packetBytes"
vector 206 WSN_EnergyEfficient.sensorNode2.wlan[0].mac.dcf packetReceivedFromPeerMulticast:vector(packetBytes) ETV
attr interpolationmode none
attr recordingmode vector(packetBytes)
attr source ieee80211Multicast(packetReceivedFromPeer)
attr title "packets received: multicast, packetBytes"
vector 207 WSN_EnergyEfficient.sensorNode2.wlan[0].mac.dcf packetReceivedFromPeerBroadcast:vector(packetBytes) ETV
attr interpolationmode none
attr recordingmode vector(packetBytes)
attr source ieee80211Broadcast(packetReceivedFromPeer)
attr title "packets received: broadcast, packetBytes"
vector 208 WSN_EnergyEfficient.sensorNode2.wlan[0].mac.dcf packetReceivedFromPeerWithRetry:vector(packetBytes) ETV
attr interpolationmode none
attr recordingmode vector(packetBytes)
attr source ieee80211Retry(packetReceivedFromPeer)
attr title "packets received: with retry, packetBytes"
vector 209 WSN_EnergyEfficient.sensorNode2.wlan[0].mac.dcf packetReceivedFromPeerWithoutRetry:vector(packetBytes) ETV
attr interpolationmode none
attr recordingmode vector(packetBytes)
attr source ieee80211NotRetry(packetReceivedFromPeer)
attr title "packets received: without retry, packetBytes"
vector 210 WSN_EnergyEfficient.sensorNode2.wlan[0].mac.dcf packetDrop:vector(packetBytes) ETV
attr interpolationmode none
attr recordingmode vector(packetBytes)
attr source packetDropped
attr title "packet drops, packetBytes"
vector 211 WSN_EnergyEfficient.sensorNode2.wlan[0].mac.dcf packetDropNotAddressedToUs:vector(packetBytes) ETV
attr interpolationmode none
attr recordingmode vector(packetBytes)
attr source packetDropReasonIsNotAddressedToUs(packetDropped)
attr title "packet drops: not addressed to us, packetBytes"
vector 212 WSN_EnergyEfficient.sensorNode2.wlan[0].mac.dcf packetDropQueueOverflow:vector(packetBytes) ETV
attr interpolationmode none
attr recordingmode vector(packetBytes)
attr source packetDropReasonIsQueueOverflow(packetDropped)
attr title "packet drops: queue overflow, packetBytes"
vector 213 WSN_EnergyEfficient.sensorNode2.wlan[0].mac.dcf packetDropRetryLimitReached:vector(packetBytes) ETV
attr interpolationmode none
attr recordingmode vector(packetBytes)
attr source packetDropReasonIsRetryLimitReached(packetDropped)
attr title "packet drops: retry limit reached, packetBytes"
vector 214 WSN_EnergyEfficient.sensorNode2.wlan[0].mac.dcf frameSequenceActive:vector ETV
attr autoWarmupFilter false
attr interpolationmode sample-hold
attr recordingmode vector
attr source warmup(count(frameSequenceStarted)-count(frameSequenceFinished))
attr title "frame sequence active"
vector 215 WSN_EnergyEfficient.sensorNode2.wlan[0].mac.dcf datarateSelected:vector ETV
attr interpolationmode none
attr recordingmode vector
attr title "datarates selected"
vector 216 WSN_EnergyEfficient.sensorNode2.wlan[0].mac.rx nav:vector ETV
attr interpolationmode linear
attr recordingmode vector
attr source navChanged
attr title "network allocation vector"
vector 217 WSN_EnergyEfficient.sensorNode2.wlan[0].mac packetSentToUpper:vector(packetBytes) ETV
attr interpolationmode none
attr recordingmode vector(packetBytes)
attr title "packets sent to upper layer, packetBytes"
vector 218 WSN_EnergyEfficient.sensorNode2.wlan[0].mac packetSentToLower:vector(packetBytes) ETV
attr interpolationmode none
attr recordingmode vector(packetBytes)
attr title "packets sent to lower layer, packetBytes"
vector 219 WSN_EnergyEfficient.sensorNode2.wlan[0].mac packetReceivedFromUpper:vector(packetBytes) ETV
attr interpolationmode none
attr recordingmode vector(packetBytes)
attr title "packets received from upper layer, packetBytes"
vector 220 WSN_EnergyEfficient.sensorNode2.wlan[0].mac packetReceivedFromLower:vector(packetBytes) ETV
attr interpolationmode none
attr recordingmode vector(packetBytes)
attr title "packets received from lower layer, packetBytes"
vector 221 WSN_EnergyEfficient.sensorNode2.wlan[0].mac packetDrop:vector(packetBytes) ETV
attr interpolationmode none
attr recordingmode vector(packetBytes)
attr source packetDropped
attr title "packet drops, packetBytes"
vector 222 WSN_EnergyEfficient.sensorNode2.wlan[0].mac packetDropIncorrectlyReceived:vector(packetBytes) ETV
attr interpolationmode none
attr recordingmode vector(packetBytes)
attr source packetDropReasonIsIncorrectlyReceived(packetDropped)
attr title "packet drops: incorrectly received, packetBytes"
vector 223 WSN_EnergyEfficient.sensorNode2.wlan[0].mac packetDropNotAddressedToUs:vector(packetBytes) ETV
attr interpolationmode none
attr recordingmode vector(packetBytes)
attr source packetDropReasonIsNotAddressedToUs(packetDropped)
attr title "packet drops: not addressed to us, packetBytes"
vector 224 WSN_EnergyEfficient.sensorNode2.wlan[0].mac packetDropQueueOverflow:vector(packetBytes) ETV
attr interpolationmode none
attr recordingmode vector(packetBytes)
attr source packetDropReasonIsQueueOverflow(packetDropped)
attr title "packet drops: queue overflow, packetBytes"
vector 225 WSN_EnergyEfficient.sensorNode2.wlan[0].mac packetDropRetryLimitReached:vector(packetBytes) ETV
attr interpolationmode none
attr recordingmode vector(packetBytes)
attr source packetDropReasonIsRetryLimitReached(packetDropped)
attr title "packet drops: retry limit reached, packetBytes"
vector 226 WSN_EnergyEfficient.sensorNode2.wlan[0].mac packetDropDuplicateDetected:vector(packetBytes) ETV
attr interpolationmode none
attr recordingmode vector(packetBytes)
attr source packetDropReasonIsDuplicateDetected(packetDropped)
attr title "packet drops: duplicate detected, packetBytes"
vector 227 WSN_EnergyEfficient.sensorNode2.wlan[0].mac packetDropOther:vector(packetBytes) ETV
attr interpolationmode none
attr recordingmode vector(packetBytes)
attr source packetDropReasonIsOther(packetDropped)
attr title "packet drops: other, packetBytes"
vector 228 WSN_EnergyEfficient.sensorNode2.wlan[0].radio.energyConsumer powerConsumption:vector ETV
attr interpolationmode sample-hold
attr recordingmode vector
attr source powerConsumptionChanged
attr title "Power consumption"
attr unit W
vector 229 WSN_EnergyEfficient.sensorNode2.wlan[0].radio radioMode:vector ETV
attr interpolationmode sample-hold
attr recordingmode vector
attr source radioModeChanged
attr title "Radio mode"
vector 230 WSN_EnergyEfficient.sensorNode2.wlan[0].radio receptionState:vector ETV
attr interpolationmode sample-hold
attr recordingmode vector
attr source receptionStateChanged
attr title "Radio reception state"
vector 231 WSN_EnergyEfficient.sensorNode2.wlan[0].radio transmissionState:vector ETV
attr interpolationmode sample-hold
attr recordingmode vector
attr source transmissionStateChanged
attr title "Radio transmission state"
vector 232 WSN_EnergyEfficient.sensorNode2.wlan[0].radio radioChannel:vector ETV
attr interpolationmode sample-hold
attr recordingmode vector
attr source radioChannelChanged
attr title "Radio channel"
vector 233 WSN_EnergyEfficient.sensorNode2.wlan[0] packetDropInterfaceDown:vector(packetBytes) ETV
attr interpolationmode none
attr recordingmode vector(packetBytes)
attr source packetDropReasonIsInterfaceDown(packetDropped)
attr title "packet drops: interface down, packetBytes"
vector 234 WSN_EnergyEfficient.sensorNode2.wlan[0] packetDropNoCarrier:vector(packetBytes) ETV
attr interpolationmode none
attr recordingmode vector(packetBytes)
attr source packetDropReasonIsNoCarrier(packetDropped)
attr title "packet drops: no carrier, packetBytes"
vector 235 WSN_EnergyEfficient.sensorNode2.ipv4.ip packetDropAddressResolutionFailed:vector(packetBytes) ETV
attr interpolationmode none
attr recordingmode vector(packetBytes)
attr source packetDropReasonIsAddressResolutionFailed(packetDropped)
attr title "packet drop: address resolution failed, packetBytes"
vector 236 WSN_EnergyEfficient.sensorNode2.ipv4.ip packetDropHopLimitReached:vector(packetBytes) ETV
attr interpolationmode none
attr recordingmode vector(packetBytes)
attr source packetDropReasonIsHopLimitReached(packetDropped)
attr title "packet drop: hop limit reached, packetBytes"
vector 237 WSN_EnergyEfficient.sensorNode2.ipv4.ip packetDropForwardingDisabled:vector(packetBytes) ETV
attr interpolationmode none
attr recordingmode vector(packetBytes)
attr source packetDropReasonIsForwardingDisabled(packetDropped)
attr title "packet drop: forwarding disabled, packetBytes"
vector 238 WSN_EnergyEfficient.sensorNode2.ipv4.ip packetDropNoInterfaceFound:vector(packetBytes) ETV
attr interpolationmode none
attr recordingmode vector(packetBytes)
attr source packetDropReasonIsNoInterfaceFound(packetDropped)
attr title "packet drop: no interface found, packetBytes"
vector 239 WSN_EnergyEfficient.sensorNode2.ipv4.ip packetDropNoRouteFound:vector(packetBytes) ETV
attr interpolationmode none
attr recordingmode vector(packetBytes)
attr source packetDropReasonIsNoRouteFound(packetDropped)
attr title "packet drop: no route found, packetBytes"
vector 240 WSN_EnergyEfficient.sensorNode2.ipv4.ip packetDropUndefined:vector(packetBytes) ETV
attr interpolationmode none
attr recordingmode vector(packetBytes)
attr source packetDropReasonIsUndefined(packetDropped)
attr title "packet drop: undefined, packetBytes"
vector 241 WSN_EnergyEfficient.sensorNode2.ipv4.arp arpRequestSent:vector(packetBytes) ETV
attr recordingmode vector(packetBytes)
attr source arpRequestSent
attr title "ARP request sent, packetBytes"
vector 242 WSN_EnergyEfficient.sensorNode2.ipv4.arp arpReplySent:vector(packetBytes) ETV
attr recordingmode vector(packetBytes)
attr source arpReplySent
attr title "ARP replies sent, packetBytes"
vector 243 WSN_EnergyEfficient.sensorNode2.udp packetSent:vector(packetBytes) ETV
attr interpolationmode none
attr recordingmode vector(packetBytes)
attr source packetSent
attr title "packets sent, packetBytes"
vector 244 WSN_EnergyEfficient.sensorNode2.udp packetReceived:vector(packetBytes) ETV
attr interpolationmode none
attr recordingmode vector(packetBytes)
attr source packetReceived
attr title "packets received, packetBytes"
vector 245 WSN_EnergyEfficient.sensorNode2.udp passedUpPk:vector(count) ETV
attr interpolationmode none
attr recordingmode vector(count)
attr source packetSentToUpper
attr title "packets passed up, count"
vector 246 WSN_EnergyEfficient.sensorNode2.udp droppedPkWrongPort:vector(count) ETV
attr interpolationmode none
attr recordingmode vector(count)
attr source packetDropReasonIsNoPortFound(packetDropped)
attr title "packets dropped (wrong port), count"
vector 247 WSN_EnergyEfficient.sensorNode2.udp droppedPkBadChecksum:vector(count) ETV
attr interpolationmode none
attr recordingmode vector(count)
attr source packetDropReasonIsIncorrectlyReceived(packetDropped)
attr title "packets dropped (checksum error), count"
vector 248 WSN_EnergyEfficient.sensorNode2.app[0] rtt:vector ETV
attr interpolationmode none
attr recordingmode vector
attr title "ping round-trip time"
attr unit s
vector 249 WSN_EnergyEfficient.sensorNode2.app[0] numLost:vector ETV
attr interpolationmode none
attr recordingmode vector
attr title "pings lost"
vector 250 WSN_EnergyEfficient.sensorNode2.app[0] numOutOfOrderArrivals:vector ETV
attr interpolationmode none
attr recordingmode vector
attr title "ping out-of-order arrivals"
vector 251 WSN_EnergyEfficient.sensorNode2.app[0] pingTxSeq:vector ETV
attr interpolationmode none
attr recordingmode vector
attr title "ping tx seq"
vector 252 WSN_EnergyEfficient.sensorNode2.app[0] pingRxSeq:vector ETV
attr interpolationmode none
attr recordingmode vector
attr title "ping rx seq"
vector 253 WSN_EnergyEfficient.sensorNode2.app[1] packetReceived:vector(packetBytes) ETV
attr interpolationmode none
attr recordingmode vector(packetBytes)
attr source packetReceived
attr title "packets received, packetBytes"
vector 254 WSN_EnergyEfficient.sensorNode2.app[1] throughput:vector ETV
attr recordingmode vector
attr source throughput(packetReceived)
attr title throughput
attr unit bps
vector 255 WSN_EnergyEfficient.sensorNode2.app[1] packetSent:vector(packetBytes) ETV
attr interpolationmode none
attr recordingmode vector(packetBytes)
attr source packetSent
attr title "packets sent, packetBytes"
vector 256 WSN_EnergyEfficient.sensorNode2.app[1] rcvdPkLifetime:vector ETV
attr interpolationmode none
attr recordingmode vector
attr source dataAge(packetReceived)
attr title "received packet lifetime"
attr unit s
vector 257 WSN_EnergyEfficient.sensorNode2.app[1] rcvdPkSeqNo:vector ETV
attr interpolationmode none
attr recordingmode vector
attr source appPkSeqNo(packetReceived)
attr title "received packet sequence number"
vector 258 WSN_EnergyEfficient.sensorNode3.energyStorage powerConsumption:vector ETV
attr interpolationmode sample-hold
attr recordingmode vector
attr source powerConsumptionChanged
attr title "Power consumption"
attr unit W
vector 259 WSN_EnergyEfficient.sensorNode3.energyStorage powerGeneration:vector ETV
attr interpolationmode sample-hold
attr recordingmode vector
attr source powerGenerationChanged
attr title "Power generation"
attr unit W
vector 260 WSN_EnergyEfficient.sensorNode3.energyStorage residualEnergyCapacity:vector ETV
attr interpolationmode linear
attr recordingmode vector
attr source residualEnergyCapacityChanged
attr title "Residual energy capacity"
attr unit J
vector 261 WSN_EnergyEfficient.sensorNode3.energyGenerator powerGeneration:vector ETV
attr interpolationmode sample-hold
attr recordingmode vector
attr source powerGenerationChanged
attr title "Power generation"
attr unit W
vector 262 WSN_EnergyEfficient.sensorNode3.lo[0].lo rcvdPkFromHl:vector(packetBytes) ETV
attr interpolationmode none
attr recordingmode vector(packetBytes)
attr source packetReceivedFromUpper
attr title "packets received from higher layer, packetBytes"
vector 263 WSN_EnergyEfficient.sensorNode3.lo[0].lo passedUpPk:vector(packetBytes) ETV
attr interpolationmode none
attr recordingmode vector(packetBytes)
attr source packetSentToUpper
attr title "packets passed to higher layer, packetBytes"
vector 264 WSN_EnergyEfficient.sensorNode3.lo[0] packetDropInterfaceDown:vector(packetBytes) ETV
attr interpolationmode none
attr recordingmode vector(packetBytes)
attr source packetDropReasonIsInterfaceDown(packetDropped)
attr title "packet drops: interface down, packetBytes"
vector 265 WSN_EnergyEfficient.sensorNode3.lo[0] packetDropNoCarrier:vector(packetBytes) ETV
attr interpolationmode none
attr recordingmode vector(packetBytes)
attr source packetDropReasonIsNoCarrier(packetDropped)
attr title "packet drops: no carrier, packetBytes"
vector 266 WSN_EnergyEfficient.sensorNode3.wlan[0].mac.dcf.channelAccess.pendingQueue queueLength:vector ETV
attr autoWarmupFilter false
attr interpolationmode sample-hold
attr recordingmode vector
attr source "warmup(atomic(constant0(packetPushEnded) + count(packetPushStarted) - count(packetPulled) - count(packetRemoved) - count(packetDropped)))"
attr title "queue length"
attr unit pk
vector 267 WSN_EnergyEfficient.sensorNode3.wlan[0].mac.dcf.channelAccess.pendingQueue queueBitLength:vector ETV
attr autoWarmupFilter false
attr interpolationmode sample-hold
attr recordingmode vector
attr source "warmup(atomic(constant0(packetPushEnded) + sum(packetLength(packetPushStarted)) - sum(packetLength(packetPulled)) - sum(packetLength(packetRemoved)) - sum(packetLength(packetDropped))))"
attr title "queue bit length"
attr unit b
vector 268 WSN_EnergyEfficient.sensorNode3.wlan[0].mac.dcf.channelAccess.pendingQueue queueingTime:vector ETV
attr interpolationmode none
attr recordingmode vector
attr source queueingTime(packetPulled)
attr title "queueing times"
attr unit s
vector 269 WSN_EnergyEfficient.sensorNode3.wlan[0].mac.dcf.channelAccess.pendingQueue incomingPacketLengths:vector ETV
attr interpolationmode none
attr recordingmode vector
attr source packetLength(packetPushStarted)
attr title "incoming packet lengths"
attr unit b
vector 270 WSN_EnergyEfficient.sensorNode3.wlan[0].mac.dcf.channelAccess.pendingQueue incomingDataRate:vector ETV
attr interpolationmode linear
attr recordingmode vector
attr source throughput(packetPushStarted)
attr title "incoming datarate"
attr unit bps
vector 271 WSN_EnergyEfficient.sensorNode3.wlan[0].mac.dcf.channelAccess.pendingQueue outgoingPacketLengths:vector ETV
attr interpolationmode none
attr recordingmode vector
attr source packetLength(packetPulled)
attr title "outgoing packet lengths"
attr unit b
vector 272 WSN_EnergyEfficient.sensorNode3.wlan[0].mac.dcf.channelAccess.pendingQueue outgoingDataRate:vector ETV
attr interpolationmode linear
attr recordingmode vector
attr source throughput(packetPulled)
attr title "outgoing datarate"
attr unit bps
vector 273 WSN_EnergyEfficient.sensorNode3.wlan[0].mac.dcf.channelAccess.pendingQueue droppedPacketLengthsQueueOverflow:vector ETV
attr interpolationmode none
attr recordingmode vector
attr source packetLength(packetDropReasonIsQueueOverflow(packetDropped))
attr title "dropped packet lengths: queue overflow"
attr unit b
vector 274 WSN_EnergyEfficient.sensorNode3.wlan[0].mac.dcf.channelAccess.pendingQueue flowQueueingTime:vector ETV
attr interpolationmode none
attr recordingmode vector
attr source queueingTime(demuxFlow(packetPulled))
attr title "flow queueing times"
attr unit s
vector 275 WSN_EnergyEfficient.sensorNode3.wlan[0].mac.dcf.channelAccess.pendingQueue flowIncomingDataRate:vector ETV
attr interpolationmode linear
attr recordingmode vector
attr source throughput(flowPacketLength(demuxFlow(packetPushStarted)))
attr title "flow specific incoming data rate"
attr unit bps
vector 276 WSN_EnergyEfficient.sensorNode3.wlan[0].mac.dcf.channelAccess.pendingQueue flowOutgoingDataRate:vector ETV
attr interpolationmode linear
attr recordingmode vector
attr source throughput(flowPacketLength(demuxFlow(packetPulled)))
attr title "flow specific outgoing data rate"
attr unit bps
vector 277 WSN_EnergyEfficient.sensorNode3.wlan[0].mac.dcf.channelAccess.inProgressFrames queueingTime:vector ETV
attr interpolationmode none
attr recordingmode vector
attr source queueingTime(packetDequeued)
attr title "queueing times"
vector 278 WSN_EnergyEfficient.sensorNode3.wlan[0].mac.dcf.channelAccess.inProgressFrames queueLength:vector ETV
attr autoWarmupFilter false
attr interpolationmode sample-hold
attr recordingmode vector
attr source "warmup(count(packetEnqueued) - count(packetDequeued))"
attr title "queue length"
vector 279 WSN_EnergyEfficient.sensorNode3.wlan[0].mac.dcf.channelAccess.contention backoffPeriodGenerated:vector ETV
attr interpolationmode none
attr recordingmode vector
attr title "backoff periods"
vector 280 WSN_EnergyEfficient.sensorNode3.wlan[0].mac.dcf.channelAccess.contention backoffActive:vector ETV
attr autoWarmupFilter false
attr interpolationmode sample-hold
attr recordingmode vector
attr source warmup(count(backoffStarted)-count(backoffStopped))
attr title "backoff active"
vector 281 WSN_EnergyEfficient.sensorNode3.wlan[0].mac.dcf.channelAccess.contention stateChanged:vector ETV
attr enum IDLE,DEFER,IFS_AND_BACKOFF
attr interpolationmode none
attr recordingmode vector
attr title "contention state changed"
attr type enum
vector 282 WSN_EnergyEfficient.sensorNode3.wlan[0].mac.dcf.recipientMacDataService packetDropDuplicateDetected:vector(packetBytes) ETV
attr interpolationmode none
attr recordingmode vector(packetBytes)
attr source packetDropReasonIsDuplicateDetected(packetDropped)
attr title "packet drops: duplicate detected, packetBytes"
vector 283 WSN_EnergyEfficient.sensorNode3.wlan[0].mac.dcf.recoveryProcedure contentionWindowChanged:vector ETV
attr interpolationmode sample-hold
attr recordingmode vector
attr title "contention window"
vector 284 WSN_EnergyEfficient.sensorNode3.wlan[0].mac.dcf packetSentToPeer:vector(packetBytes) ETV
attr interpolationmode none
attr recordingmode vector(packetBytes)
attr title "packets sent, packetBytes"
vector 285 WSN_EnergyEfficient.sensorNode3.wlan[0].mac.dcf packetSentToPeerUnicast:vector(packetBytes) ETV
attr interpolationmode none
attr recordingmode vector(packetBytes)
attr source ieee80211Unicast(packetSentToPeer)
attr title "packets sent: unicast, packetBytes"
vector 286 WSN_EnergyEfficient.sensorNode3.wlan[0].mac.dcf packetSentToPeerMulticast:vector(packetBytes) ETV
attr interpolationmode none
attr recordingmode vector(packetBytes)
attr source ieee80211Multicast(packetSentToPeer)
attr title "packets sent: multicast, packetBytes"
vector 287 WSN_EnergyEfficient.sensorNode3.wlan[0].mac.dcf packetSentToPeerBroadcast:vector(packetBytes) ETV
attr interpolationmode none
attr recordingmode vector(packetBytes)
attr source ieee80211Broadcast(packetSentToPeer)
attr title "packets sent: broadcast , packetBytes"
vector 288 WSN_EnergyEfficient.sensorNode3.wlan[0].mac.dcf packetSentToPeerWithRetry:vector(packetBytes) ETV
attr interpolationmode none
attr recordingmode vector(packetBytes)
attr source ieee80211Retry(packetSentToPeer)
attr title "packets sent: with retry, packetBytes"
vector 289 WSN_EnergyEfficient.sensorNode3.wlan[0].mac.dcf packetSentToPeerWithoutRetry:vector(packetBytes) ETV
attr interpolationmode none
attr recordingmode vector(packetBytes)
attr source ieee80211NotRetry(packetSentToPeer)
attr title "packets sent: without retry, packetBytes"
vector 290 WSN_EnergyEfficient.sensorNode3.wlan[0].mac.dcf packetReceivedFromPeer:vector(packetBytes) ETV
attr interpolationmode none
attr recordingmode vector(packetBytes)
attr title "packets received, packetBytes"
vector 291 WSN_EnergyEfficient.sensorNode3.wlan[0].mac.dcf packetReceivedFromPeerUnicast:vector(packetBytes) ETV
attr interpolationmode none
attr recordingmode vector(packetBytes)
attr source ieee80211Unicast(packetReceivedFromPeer)
attr title "packets received: unicast, packetBytes"
vector 292 WSN_EnergyEfficient.sensorNode3.wlan[0].mac.dcf packetReceivedFromPeerMulticast:vector(packetBytes) ETV
attr interpolationmode none
attr recordingmode vector(packetBytes)
attr source ieee80211Multicast(packetReceivedFromPeer)
attr title "packets received: multicast, packetBytes"
vector 293 WSN_EnergyEfficient.sensorNode3.wlan[0].mac.dcf packetReceivedFromPeerBroadcast:vector(packetBytes) ETV
attr interpolationmode none
attr recordingmode vector(packetBytes)
attr source ieee80211Broadcast(packetReceivedFromPeer)
attr title "packets received: broadcast, packetBytes"
vector 294 WSN_EnergyEfficient.sensorNode3.wlan[0].mac.dcf packetReceivedFromPeerWithRetry:vector(packetBytes) ETV
attr interpolationmode none
attr recordingmode vector(packetBytes)
attr source ieee80211Retry(packetReceivedFromPeer)
attr title "packets received: with retry, packetBytes"
vector 295 WSN_EnergyEfficient.sensorNode3.wlan[0].mac.dcf packetReceivedFromPeerWithoutRetry:vector(packetBytes) ETV
attr interpolationmode none
attr recordingmode vector(packetBytes)
attr source ieee80211NotRetry(packetReceivedFromPeer)
attr title "packets received: without retry, packetBytes"
vector 296 WSN_EnergyEfficient.sensorNode3.wlan[0].mac.dcf packetDrop:vector(packetBytes) ETV
attr interpolationmode none
[...]
573	4645699 33 0 0 0 0 3 0 2 2 4
574	4645732 58649 0 78683 0 199.895971413871 2001 1 3 4001 10001
576	4704381 11 0 0 0 0 1 0 0 0 0
583	4704392 573 4047 70887 9.73608040018 179.859505543837 19 60 92 1556 131632
587	4704965 180 4046 68868 9.73608040018 174.580599153309 6 40 40 240 9600
589	4705145 11 0 0 0 0 1 0 0 0 0
590	4705156 11 0 0 0 0 1 0 0 0 0
591	4705167 11 0 0 0 0 1 0 0 0 0
595	4705178 383 4066 70886 9.807565086056 179.859505543837 13 0 12 78 650
598	4705561 36502 78702 78702 0.1 200 2000 0 0 0 0
599	4742063 180 4044 68867 9.73608040018 174.580599153309 6 32 32 192 6144
602	4742243 54563 0 78692 0 199.895971614555 1668 0 0.01 9.8939999999999 0.085708000000001
603	4796806 359 0 75029 0 190.930003771676 12 0 0.003 0.018 5.4e-05
604	4797165 100657 0 78702 0 200 2377 0.059999999999998 0.15 270.06389314346 32.037317152076
605	4897822 359 0 75029 0 190.930003771676 12 0 0.003 0.018 5.4e-05
610	4898181 55 0 0 0 0 5 0 0 0 0
611	4898236 55 0 0 0 0 5 0 0 0 0
614	4898291 36502 78702 78702 0.1 200 2000 0 0 0 0
616	4934793 36502 78702 78702 0.1 200 2000 0 0 0 0
622	4971295 22 0 0 0 0 2 0 0 0 0
624	4971317 22 0 0 0 0 2 0 0 0 0
625	4971339 96838 0 78692 0 199.895971614555 3306 0 0 0 0
627	5068177 12 0 0 0 0 1 31 31 31 961
634	5068189 24969 84 78693 0.295971614555 199.895971614555 824 32 32 26368 843776
636	5093158 24969 84 78693 0.295971614555 199.895971614555 824 32 32 26368 843776
637	5118127 24969 84 78693 0.295971614555 199.895971614555 824 32 32 26368 843776
639	5143096 24969 84 78693 0.295971614555 199.895971614555 824 32 32 26368 843776
644	5168065 22 0 0 0 0 2 0 0 0 0
650	5168087 24969 84 78693 0.295971614555 199.895971614555 824 32 32 26368 843776
658	5193056 54552 0 78692 0 199.895971614555 1667 0 0.01 9.8939999999999 0.085708000000001
659	5247608 210 0 50211 0 125.379613315715 9 0 2 6 12
660	5247818 48419 0 78692 0 199.895971614555 1653 0 3 3299 8243
662	5296237 11 0 0 0 0 1 0 0 0 0
669	5296248 569 3342 70361 8.02476258087 178.40847473686 19 60 92 1524 126768
673	5296817 211 4905 70360 11.788795336615 178.40847473686 7 40 40 280 11200
675	5297028 11 0 0 0 0 1 0 0 0 0
676	5297039 11 0 0 0 0 1 0 0 0 0
677	5297050 11 0 0 0 0 1 0 0 0 0
681	5297061 346 3340 68412 8.02476258087 173.315534994687 12 0 6 25 97
684	5297407 36502 78702 78702 0.1 200 2000 0 0 0 0
685	5333909 211 4903 70359 11.788795336615 178.40847473686 7 32 32 224 7168
688	5334120 65722 0 78695 0 199.895971826071 2006 0 0.01 12.002 0.104004
689	5399842 269 0 71858 0 182.49196985489 9 0 0.003 0.015 4.5e-05
690	5400111 115154 0 78702 0 200 2762 0.08827920966316 0.15 341.48096614109 43.521531682407
691	5515265 269 0 71858 0 182.49196985489 9 0 0.003 0.015 4.5e-05
696	5515534 55 0 0 0 0 5 0 0 0 0
697	5515589 55 0 0 0 0 5 0 0 0 0
700	5515644 36502 78702 78702 0.1 200 2000 0 0 0 0
702	5552146 36502 78702 78702 0.1 200 2000 0 0 0 0
708	5588648 22 0 0 0 0 2 0 0 0 0
710	5588670 22 0 0 0 0 2 0 0 0 0
711	5588692 117298 0 78695 0 199.895971826071 4002 0 0 0 0
713	5705990 12 0 0 0 0 1 31 31 31 961
720	5706002 30319 87 78696 0.295971826071 199.895971826071 1000 32 32 32000 1024000
722	5736321 30319 87 78696 0.295971826071 199.895971826071 1000 32 32 32000 1024000
723	5766640 30319 87 78696 0.295971826071 199.895971826071 1000 32 32 32000 1024000
725	5796959 30319 87 78696 0.295971826071 199.895971826071 1000 32 32 32000 1024000
730	5827278 22 0 0 0 0 2 0 0 0 0
736	5827300 30319 87 78696 0.295971826071 199.895971826071 1000 32 32 32000 1024000
744	5857619 65711 0 78695 0 199.895971826071 2005 0 0.01 12.002 0.104004
745	5923330 33 0 0 0 0 3 0 2 2 4
746	5923363 58649 0 78695 0 199.895971826071 2001 1 3 4001 10001
748	5982012 11 0 0 0 0 1 0 0 0 0
755	5982023 423 912 72601 2.290179569507 184.324518756942 14 60 92 1064 84448
759	5982446 212 4388 72600 10.373732282314 184.324518756942 7 40 40 280 11200
761	5982658 11 0 0 0 0 1 0 0 0 0
762	5982669 11 0 0 0 0 1 0 0 0 0
763	5982680 11 0 0 0 0 1 0 0 0 0
767	5982691 204 910 59439 2.290179569507 149.630197692023 7 0 6 21 91
770	5982895 36502 78702 78702 0.1 200 2000 0 0 0 0
771	6019397 212 4386 72599 10.373732282314 184.324518756942 7 32 32 224 7168
774	6019609 52476 0 78689 0 199.895971611985 1636 0 0.01 9.7019999999999 0.084044000000001
775	6072085 203 0 71252 0 180.893805684335 7 0 0.003 0.012 3.6e-05
776	6072288 100064 0 78702 0 200 2558 0.059999999999998 0.15 320.8223042332 42.485191921854
777	6172352 203 0 71252 0 180.893805684335 7 0 0.003 0.012 3.6e-05
782	6172555 55 0 0 0 0 5 0 0 0 0
783	6172610 55 0 0 0 0 5 0 0 0 0
786	6172665 36502 78702 78702 0.1 200 2000 0 0 0 0
788	6209167 36502 78702 78702 0.1 200 2000 0 0 0 0
794	6245669 22 0 0 0 0 2 0 0 0 0
796	6245691 22 0 0 0 0 2 0 0 0 0
797	6245713 92882 0 78689 0 199.895971611985 3242 0 0 0 0
799	6338595 12 0 0 0 0 1 31 31 31 961
806	6338607 23963 81 78690 0.295971611985 199.895971611985 808 32 32 25856 827392
808	6362570 23963 81 78690 0.295971611985 199.895971611985 808 32 32 25856 827392
809	6386533 23963 81 78690 0.295971611985 199.895971611985 808 32 32 25856 827392
811	6410496 23963 81 78690 0.295971611985 199.895971611985 808 32 32 25856 827392
816	6434459 22 0 0 0 0 2 0 0 0 0
822	6434481 23963 81 78690 0.295971611985 199.895971611985 808 32 32 25856 827392
830	6458444 52465 0 78689 0 199.895971611985 1635 0 0.01 9.7019999999999 0.084044000000001
831	6510909 213 0 75028 0 190.893805684337 9 0 2 6 12
832	6511122 46441 0 78689 0 199.895971611985 1621 0 3 3235 8083
834	6557563 11 0 0 0 0 1 0 0 0 0
841	6557574 330 1974 66384 4.731957470067 167.913533784436 11 60 92 820 63920
845	6557904 180 4040 66383 9.736004227307 167.913533784436 6 40 40 240 9600
847	6558084 11 0 0 0 0 1 0 0 0 0
848	6558095 11 0 0 0 0 1 0 0 0 0
849	6558106 11 0 0 0 0 1 0 0 0 0
853	6558117 145 1972 56372 4.731957470067 141.802192652794 5 0 3 6 14
856	6558262 36502 78702 78702 0.1 200 2000 0 0 0 0
857	6594764 180 4038 66382 9.736004227307 167.913533784436 6 32 32 192 6144
860	6594944 62720 0 78680 0 199.8959713843 2006 0 0.01 12.002 0.104004
861	6657664 441 0 53820 0 134.745056813654 15 0 0.003 0.024 7.2e-05
862	6658105 113191 0 78702 0 200 2826 0.089213063660934 0.15 348.23209383669 44.115176752804
863	6771296 441 0 53820 0 134.745056813654 15 0 0.003 0.024 7.2e-05
868	6771737 55 0 0 0 0 5 0 0 0 0
869	6771792 55 0 0 0 0 5 0 0 0 0
872	6771847 36502 78702 78702 0.1 200 2000 0 0 0 0
874	6808349 36502 78702 78702 0.1 200 2000 0 0 0 0
880	6844851 22 0 0 0 0 2 0 0 0 0
882	6844873 22 0 0 0 0 2 0 0 0 0
883	6844895 111298 0 78680 0 199.8959713843 4002 0 0 0 0
885	6956193 12 0 0 0 0 1 31 31 31 961
892	6956205 28819 69 78681 0.2959713843 199.8959713843 1000 32 32 32000 1024000
894	6985024 28819 69 78681 0.2959713843 199.8959713843 1000 32 32 32000 1024000
895	7013843 28819 69 78681 0.2959713843 199.8959713843 1000 32 32 32000 1024000
897	7042662 28819 69 78681 0.2959713843 199.8959713843 1000 32 32 32000 1024000
902	7071481 22 0 0 0 0 2 0 0 0 0
908	7071503 28819 69 78681 0.2959713843 199.8959713843 1000 32 32 32000 1024000
916	7100322 62709 0 78680 0 199.8959713843 2005 0 0.01 12.002 0.104004
917	7163031 33 0 0 0 0 3 0 2 2 4
918	7163064 55649 0 78680 0 199.8959713843 2001 1 3 4001 10001
920	7218713 11 0 0 0 0 1 0 0 0 0
927	7218724 515 2144 70066 5.105353023624 177.751639519788 17 60 92 1372 114704
931	7219239 181 2995 67956 7.165503567085 171.899983074198 6 40 40 240 9600
933	7219420 11 0 0 0 0 1 0 0 0 0
934	7219431 11 0 0 0 0 1 0 0 0 0
935	7219442 11 0 0 0 0 1 0 0 0 0
939	7219453 324 2142 70065 5.105353023624 177.751639519788 11 0 10 55 385
942	7219777 36502 78702 78702 0.1 200 2000 0 0 0 0
943	7256279 181 2993 67955 7.165503567085 171.899983074198 6 32 32 192 6144
946	7256460 52195 0 78674 0 199.895971240436 1600 0 0.01 9.4859999999998 0.082172000000001
947	7308655 732 0 75509 0 192.186836748486 24 0 0.003 0.036 0.000108
948	7309387 98086 0 78702 0 200 2289 0.059999999999998 0.14091468064993 236.82432465714 25.544559228339
949	7407473 732 0 75509 0 192.186836748486 24 0 0.003 0.036 0.000108
954	7408205 55 0 0 0 0 5 0 0 0 0
955	7408260 55 0 0 0 0 5 0 0 0 0
958	7408315 36502 78702 78702 0.1 200 2000 0 0 0 0
960	7444817 36502 78702 78702 0.1 200 2000 0 0 0 0
966	7481319 22 0 0 0 0 2 0 0 0 0
968	7481341 22 0 0 0 0 2 0 0 0 0
969	7481363 92578 0 78674 0 199.895971240436 3170 0 0 0 0
971	7573941 12 0 0 0 0 1 31 31 31 961
978	7573953 23870 63 78675 0.295971240436 199.895971240436 790 32 32 25280 808960
980	7597823 23870 63 78675 0.295971240436 199.895971240436 790 32 32 25280 808960
981	7621693 23870 63 78675 0.295971240436 199.895971240436 790 32 32 25280 808960
983	7645563 23870 63 78675 0.295971240436 199.895971240436 790 32 32 25280 808960
988	7669433 22 0 0 0 0 2 0 0 0 0
994	7669455 23870 63 78675 0.295971240436 199.895971240436 790 32 32 25280 808960
1002	7693325 53783 0 78674 0 199.895971240436 1599 0 0.01 9.4859999999998 0.082172000000001
1003	7747108 219 0 75267 0 191.469041169035 9 0 2 6 12
1004	7747327 47874 0 78674 0 199.895971240436 1585 0 3 3163 7903
1006	7795201 12 0 0 0 0 1 0 0 0 0
1013	7795213 431 2657 61125 6.496748637874 154.110169849001 14 60 92 1032 79584
1017	7795644 245 2656 61124 6.496748637874 154.110169849001 8 40 40 320 12800
1019	7795889 12 0 0 0 0 1 0 0 0 0
1020	7795901 12 0 0 0 0 1 0 0 0 0
1021	7795913 12 0 0 0 0 1 0 0 0 0
1025	7795925 180 2666 59437 6.558719507651 149.627560412509 6 0 2 6 10
1028	7796105 38502 78702 78702 0.1 200 2000 0 0 0 0
1029	7834607 245 2654 61123 6.496748637874 154.110169849001 8 32 32 256 8192
1032	7834852 58516 0 78665 0 199.89597105243 1765 0 0.01 10.516 0.091112000000002
1033	7893368 367 0 75265 0 191.460160587774 12 0 0.003 0.018 5.4e-05
1034	7893735 105663 0 78702 0 200 2425 0.059999999999998 0.12752573894792 257.21944282005 27.914149209794
1035	7999398 367 0 75265 0 191.460160587774 12 0 0.003 0.018 5.4e-05
1040	7999765 60 0 0 0 0 5 0 0 0 0
1041	7999825 60 0 0 0 0 5 0 0 0 0
1044	7999885 38502 78702 78702 0.1 200 2000 0 0 0 0
1046	8038387 38502 78702 78702 0.1 200 2000 0 0 0 0
1052	8076889 24 0 0 0 0 2 0 0 0 0
1054	8076913 24 0 0 0 0 2 0 0 0 0
1055	8076937 104296 0 78665 0 199.89597105243 3510 0 0 0 0
1057	8181233 13 0 0 0 0 1 31 31 31 961
1064	8181246 26913 54 78666 0.29597105243 199.89597105243 876 32 32 28032 897024
1066	8208159 26913 54 78666 0.29597105243 199.89597105243 876 32 32 28032 897024
1067	8235072 26913 54 78666 0.29597105243 199.89597105243 876 32 32 28032 897024
1069	8261985 26913 54 78666 0.29597105243 199.89597105243 876 32 32 28032 897024
1074	8288898 24 0 0 0 0 2 0 0 0 0
1080	8288922 26913 54 78666 0.29597105243 199.89597105243 876 32 32 28032 897024
1088	8315835 58504 0 78665 0 199.89597105243 1764 0 0.01 10.516 0.091112000000002
1089	8374339 129 0 60807 0 153.358115098597 6 0 2 4 8
1090	8374468 52148 0 78665 0 199.89597105243 1755 0 3 3506 8762
1092	8426616 12 0 0 0 0 1 0 0 0 0
1099	8426628 685 3950 65710 9.49373267754 166.269916654617 22 60 92 1672 132704
1103	8427313 343 5926 65709 14.025984713808 166.269916654617 11 40 40 440 17600
1105	8427656 12 0 0 0 0 1 0 0 0 0
1106	8427668 12 0 0 0 0 1 0 0 0 0
1107	8427680 12 0 0 0 0 1 0 0 0 0
1111	8427692 331 3948 60808 9.49373267754 153.358115098597 11 0 9 45 285
1114	8428023 38502 78702 78702 0.1 200 2000 0 0 0 0
1115	8466525 343 5924 65708 14.025984713808 166.269916654617 11 32 32 352 11264
1118	8466868 54901 0 78391 0 199.099400098077 1633 0 0.01 9.6659999999998 0.083732000000001
1119	8521769 495 0 69920 0 177.443713184455 16 0 0.003 0.024 7.2e-05
1120	8522264 101561 0 78702 0 200 2319 0.055996959999998 0.14785740575766 245.56751544733 27.33352615539
1121	8623825 495 0 69920 0 177.443713184455 16 0 0.003 0.024 7.2e-05
1126	8624320 60 0 0 0 0 5 0 0 0 0
1127	8624380 60 0 0 0 0 5 0 0 0 0
1130	8624440 38502 78702 78702 0.1 200 2000 0 0 0 0
1132	8662942 38502 78702 78702 0.1 200 2000 0 0 0 0
1138	8701444 24 0 0 0 0 2 0 0 0 0
1140	8701468 24 0 0 0 0 2 0 0 0 0
1141	8701492 97620 0 78391 0 199.099400098077 3232 0 0 0 0
1143	8799112 13 0 0 0 0 1 31 31 31 961
1150	8799125 25127 78 78377 0.295971558694 199.095971558694 805 32 32 25760 824320
1152	8824252 25127 78 78377 0.295971558694 199.095971558694 805 32 32 25760 824320
1153	8849379 25127 78 78377 0.295971558694 199.095971558694 805 32 32 25760 824320
1155	8874506 25127 78 78377 0.295971558694 199.095971558694 805 32 32 25760 824320
1160	8899633 24 0 0 0 0 2 0 0 0 0
1166	8899657 25127 78 78377 0.295971558694 199.095971558694 805 32 32 25760 824320
1174	8924784 54889 0 78391 0 199.099400098077 1632 0 0.01 9.6659999999998 0.083732000000001
1175	8979673 252 0 78391 0 199.099400098077 10 0 2 6 12
1176	8979925 48810 0 78391 0 199.099400098077 1616 0 3 3223 8053
1178	9028735 12 0 0 0 0 1 0 0 0 0
1185	9028747 528 1982 66710 4.933287573978 168.822454039278 17 60 92 1308 104976
1189	9029275 252 5920 66709 14.023485782091 168.822454039278 8 40 40 320 12800
1191	9029527 12 0 0 0 0 1 0 0 0 0
1192	9029539 12 0 0 0 0 1 0 0 0 0
1193	9029551 12 0 0 0 0 1 0 0 0 0
1197	9029563 267 1980 66391 4.933287573978 168.087955357216 9 0 5 16 56
1200	9029830 38502 78702 78702 0.1 200 2000 0 0 0 0
1201	9068332 252 5918 66708 14.023485782091 168.822454039278 8 32 32 256 8192
1204	9068584 52778 0 78662 0 199.895971007058 1561 0 0.01 9.2919999999998 0.080504000000001
1205	9121362 302 0 77604 0 197.436892162862 10 0 0.003 0.015 4.5e-05
1206	9121664 96396 0 78702 0 200 2197 0.059999999999998 0.14738160020875 248.96663348789 28.966505766302
1207	9218060 302 0 77604 0 197.436892162862 10 0 0.003 0.015 4.5e-05
1212	9218362 60 0 0 0 0 5 0 0 0 0
1213	9218422 60 0 0 0 0 5 0 0 0 0
1216	9218482 38502 78702 78702 0.1 200 2000 0 0 0 0
1218	9256984 38502 78702 78702 0.1 200 2000 0 0 0 0
1224	9295486 24 0 0 0 0 2 0 0 0 0
1226	9295510 24 0 0 0 0 2 0 0 0 0
1227	9295534 94250 0 78662 0 199.895971007058 3102 0 0 0 0
1229	9389784 13 0 0 0 0 1 31 31 31 961
1236	9389797 24300 48 78663 0.295971007058 199.895971007058 774 32 32 24768 792576
1238	9414097 24300 48 78663 0.295971007058 199.895971007058 774 32 32 24768 792576
1239	9438397 24300 48 78663 0.295971007058 199.895971007058 774 32 32 24768 792576
1241	9462697 24300 48 78663 0.295971007058 199.895971007058 774 32 32 24768 792576
1246	9486997 24 0 0 0 0 2 0 0 0 0
1252	9487021 24300 48 78663 0.295971007058 199.895971007058 774 32 32 24768 792576
1260	9511321 52766 0 78662 0 199.895971007058 1560 0 0.01 9.2919999999998 0.080504000000001
1261	9564087 128 0 41399 0 102.681833391956 6 0 2 4 8
1262	9564215 47125 0 78662 0 199.895971007058 1551 0 3 3098 7742
1264	9611340 12 0 0 0 0 1 0 0 0 0
1271	9611352 561 2844 71564 7.000900401501 181.795785352626 18 60 92 1336 103712
1275	9611913 315 4891 71563 11.531400321983 181.795785352626 10 40 40 400 16000
1277	9612228 12 0 0 0 0 1 0 0 0 0
1278	9612240 12 0 0 0 0 1 0 0 0 0
1279	9612252 12 0 0 0 0 1 0 0 0 0
1283	9612264 238 2842 51897 7.000900401501 129.499867883779 8 0 5 16 56
1286	9612502 38502 78702 78702 0.1 200 2000 0 0 0 0
1287	9651004 315 4889 71562 11.531400321983 181.795785352626 10 32 32 320 10240
1294	9651319 15158 89 78553 0.298589869682 199.748589869682 500 1 1 500 500
1296	9666477 15132 173 78553 0.548589869682 199.748589869682 499 1 1 499 499
1297	9681609 30378 0 78566 0 199.848589869682 1005 0 1 500 500
1298	9711987 31378 0 78566 0 199.848589869682 1005 0 256 128000 32768000
1299	9743365 15159 99 78566 0.398589869682 199.848589869682 500 0 0 0 0
1300	9758524 16159 97 78564 0.398589869682 199.848589869682 500 256 256 128000 32768000
1301	9774683 39743 97 78702 0.1 200 2000 0 2560 1280000 3276800000
1302	9814426 16159 99 78566 0.398589869682 199.848589869682 500 256 256 128000 32768000
1303	9830585 39743 99 78702 0.1 200 2000 0 2560 1280000 3276800000
1308	9870328 18160 118 78585 0.398627869682 199.848627869682 500 3.8e-05 3.8e-05 0.019 7.2200000000001e-07
1309	9888488 30343 0 78585 0 199.848627869682 1002 0 1 500 500
1310	9918831 15510 97 78564 0.398589869682 199.848589869682 500 0 31 7922 165726
1311	9934341 30342 0 78565 0 199.848589869682 1002 0 1 500 500
1312	9964683 181936 0 78659 0 199.895970985946 6002 0 2 2000 4000
1314	10146619 13 0 0 0 0 1 31 31 31 961
1315	10146632 15660 118 78585 0.398627869682 199.848627869682 500 32 32 16000 512000
1317	10162292 15660 118 78585 0.398627869682 199.848627869682 500 32 32 16000 512000
1318	10177952 15660 118 78585 0.398627869682 199.848627869682 500 32 32 16000 512000
1320	10193612 15660 118 78585 0.398627869682 199.848627869682 500 32 32 16000 512000
1321	10209272 15659 45 78660 0.295970985946 199.895970985946 500 32 32 16000 512000
1323	10224931 15659 45 78660 0.295970985946 199.895970985946 500 32 32 16000 512000
1324	10240590 15659 45 78660 0.295970985946 199.895970985946 500 32 32 16000 512000
1326	10256249 15659 45 78660 0.295970985946 199.895970985946 500 32 32 16000 512000
1331	10271908 30343 0 78585 0 199.848627869682 1002 0 1 500 500
1332	10302251 18659 99 78566 0.398589869682 199.848589869682 500 24000000 24000000 12000000000 2.88e+17
1335	10320910 15659 99 78566 0.398589869682 199.848589869682 500 32 32 16000 512000
1337	10336569 15659 45 78660 0.295970985946 199.895970985946 500 32 32 16000 512000
1345	10352228 30356 0 78586 0 199.848627869682 1003 0 3 2502 6504
1346	10382584 60650 0 78659 0 199.895970985946 2001 0 3 2501 5501
1347	10443234 60640 100 78586 0.398589869682 199.848627869682 2000 0 2 2000 3000
1348	10503874 15170 0 78556 0 199.748589869682 501 0 0 0 0
1361	10519044 12 0 0 0 0 1 0 0 0 0
1362	10519056 12 0 0 0 0 1 0 0 0 0
1363	10519068 12 0 0 0 0 1 0 0 0 0
1365	10519080 38502 78702 78702 0.1 200 2000 0 0 0 0
1372	10557582 15158 10 78559 0.195932496618 199.795932496618 500 1 1 500 500
1374	10572740 15132 179 78559 0.595932496618 199.795932496618 499 1 1 499 499
1375	10587872 30378 0 78635 0 199.895932496618 1005 0 1 500 500
1376	10618250 31378 0 78635 0 199.895932496618 1005 0 256 128000 32768000
1377	10649628 15159 20 78635 0.295932496618 199.895932496618 500 0 0 0 0
1378	10664787 16159 18 78633 0.295932496618 199.895932496618 500 256 256 128000 32768000
1379	10680946 39744 18 78702 0.1 200 2000 0 2560 1280000 3276800000
1380	10720690 16159 20 78635 0.295932496618 199.895932496618 500 256 256 128000 32768000
1381	10736849 39744 20 78702 0.1 200 2000 0 2560 1280000 3276800000
1386	10776593 18159 39 78654 0.295970496618 199.895970496618 500 3.8e-05 3.8e-05 0.019 7.2200000000001e-07
1387	10794752 30342 0 78654 0 199.895970496618 1002 0 1 500 500
1388	10825094 15491 18 78633 0.295932496618 199.895932496618 500 0 31 7396 151044
1389	10840585 30342 0 78634 0 199.895932496618 1002 0 1 500 500
1390	10870927 179936 0 78655 0 199.895970496618 6002 0 2 2000 4000
1392	11050863 13 0 0 0 0 1 31 31 31 961
1393	11050876 15659 39 78654 0.295970496618 199.895970496618 500 32 32 16000 512000
1395	11066535 15659 39 78654 0.295970496618 199.895970496618 500 32 32 16000 512000
1396	11082194 15659 39 78654 0.295970496618 199.895970496618 500 32 32 16000 512000
1398	11097853 15659 39 78654 0.295970496618 199.895970496618 500 32 32 16000 512000
1399	11113512 15160 124 78591 0.39862835901 199.84862835901 500 32 32 16000 512000
1401	11128672 15160 124 78591 0.39862835901 199.84862835901 500 32 32 16000 512000
1402	11143832 15160 124 78591 0.39862835901 199.84862835901 500 32 32 16000 512000
1404	11158992 15160 124 78591 0.39862835901 199.84862835901 500 32 32 16000 512000
1409	11174152 30342 0 78654 0 199.895970496618 1002 0 1 500 500
1410	11204494 18659 20 78635 0.295932496618 199.895932496618 500 24000000 24000000 12000000000 2.88e+17
1413	11223153 15659 20 78635 0.295932496618 199.895932496618 500 32 32 16000 512000
1415	11238812 15160 124 78591 0.39862835901 199.84862835901 500 32 32 16000 512000
1423	11253972 30354 0 78655 0 199.895970496618 1003 0 3 2502 6504
1424	11284326 59650 0 78655 0 199.895970496618 2001 0 3 2501 5501
1425	11343976 60636 21 78655 0.295932496618 199.895970496618 2000 0 2 2000 3000
1426	11404612 15170 0 78562 0 199.795932496618 501 0 0 0 0
1439	11419782 12 0 0 0 0 1 0 0 0 0
1440	11419794 12 0 0 0 0 1 0 0 0 0
1441	11419806 12 0 0 0 0 1 0 0 0 0
1443	11419818 38502 78702 78702 0.1 200 2000 0 0 0 0

