version 3
run General-0-20250705-20:35:56-3920
attr configname General
attr datetime 20250705-20:35:56
attr datetimef 20250705-203556
attr experiment General
attr inifile omnetpp.ini
attr iterationvars ""
attr iterationvarsd ""
attr iterationvarsf ""
attr measurement ""
attr network WSN_EnergyEfficient
attr processid 3920
attr repetition 0
attr replication #0
attr resultdir results
attr runnumber 0
attr seedset 0
config image-path ../../inet4.5/images
config network WSN_EnergyEfficient
config sim-time-limit 200s
config *.visualizer.energyStorageVisualizer.displayEnergyStorages true
config *.visualizer.dataLinkVisualizer.displayLinks true
config *.visualizer.dataLinkVisualizer.packetFilter "\"*\""
config *.visualizer.networkRouteVisualizer.displayRoutes true
config *.visualizer.networkRouteVisualizer.packetFilter "\"*\""
config *.visualizer.networkRouteVisualizer.lineColor "\"blue\""
config *.visualizer.physicalLinkVisualizer.displayLinks true
config *.visualizer.mobilityVisualizer.displayMobility true
config *.visualizer.mobilityVisualizer.displayMovementTrails true
config *.sensorNode*.hasStatus true
config *.sensorNode*.energyStorage.typename SimpleEpEnergyStorage
config *.sensorNode*.wlan[0].radio.energyConsumer.typename StateBasedEpEnergyConsumer
config *.sensorNode*.energyManagement.typename SimpleEpEnergyManagement
config *.sensorNode*.energyStorage.nominalCapacity 0.15J
config *.sensorNode*.energyStorage.initialCapacity 0.15J
config *.sensorNode*.energyStorage.printCapacityStep 0.0015J
config *.sensorNode*.energyManagement.nodeShutdownCapacity 0.06J
config *.sensorNode*.energyManagement.nodeStartCapacity 0.09J
config *.sensorNode*.energyGenerator.typename AlternatingEpEnergyGenerator
config *.sensorNode*.energyGenerator.powerGeneration 3mW
config *.sensorNode*.energyGenerator.sleepInterval exponential(15s)
config *.sensorNode*.energyGenerator.generationInterval exponential(20s)
config *.sensorNode*.mobility.typename StationaryMobility
config *.sensorNode*.mobility.initFromDisplayString true
config *.accessPoint*.mobility.typename StationaryMobility
config *.accessPoint*.mobility.initFromDisplayString true
config **.wlan[*].typename Ieee802154NarrowbandInterface
config **.wlan[*].radio.transmitter.power 2.24mW
config **.wlan[*].radio.receiver.sensitivity -85dBm
config **.wlan[*].radio.receiver.energyDetection -85dBm
config **.wlan[*].radio.receiver.snirThreshold 4dB
config **.wlan[*].radio.centerFrequency 2.4GHz
config **.wlan[*].radio.bandwidth 2MHz
config **.wlan[*].mac.useMACAcks true
config **.wlan[*].mac.rxSetupTime 0.00192s
config **.radioMedium.backgroundNoise.power -110dBm
config *.*.routing.typename Aodv
config *.configurator.addStaticRoutes false
config *.configurator.addDefaultRoutes false
config *.configurator.addSubnetRoutes false
config *.configurator.optimizeRoutes false
config *.sensorNode*.numApps 2
config *.sensorNode*.app[0].typename PingApp
config *.sensorNode*.app[0].destAddr "\"accessPoint0\""
config *.sensorNode*.app[0].startTime "uniform(1s, 10s)"
config *.sensorNode*.app[0].stopTime 190s
config *.sensorNode*.app[0].sendInterval exponential(20s)
config *.sensorNode*.app[0].packetSize 64B
config *.sensorNode*.app[0].printPing true
config *.sensorNode*.app[1].typename UdpBasicApp
config *.sensorNode*.app[1].destAddresses "\"accessPoint0\""
config *.sensorNode*.app[1].destPort 5000
config *.sensorNode*.app[1].messageLength 32B
config *.sensorNode*.app[1].sendInterval exponential(25s)
config *.sensorNode*.app[1].startTime "uniform(5s, 15s)"
config *.sensorNode*.app[1].stopTime 190s
config *.accessPoint*.numApps 1
config *.accessPoint*.hasStatus true
config *.accessPoint*.app[0].typename UdpSink
config *.accessPoint*.app[0].localPort 5000
config *.sensorNode*.wlan[0].mac.typename Ieee802154Mac
config *.sensorNode*.wlan[0].mac.macMaxFrameRetries 3
config *.sensorNode*.wlan[0].mac.macMaxBE 5
config *.sensorNode*.wlan[0].mac.macMinBE 3
config *.accessPoint*.wlan[0].mac.typename Ieee802154Mac
config *.accessPoint*.wlan[0].mac.macMaxFrameRetries 3
config *.sensorNode*.wlan[0].mac.recordStatistics true
config *.accessPoint*.wlan[0].mac.recordStatistics true
config *.radioMedium.pathLoss.typename FreeSpacePathLoss
config *.sensorNode*.wlan[0].radio.displayCommunicationRange false
config *.accessPoint*.wlan[0].radio.displayCommunicationRange false
config *.radioMedium.carrierFrequency 2.4GHz
config *.radioMedium.bandwidth 250kbps

vector 0 WSN_EnergyEfficient.sensorNode0.energyStorage powerConsumption:vector ETV
attr interpolationmode sample-hold
attr recordingmode vector
attr source powerConsumptionChanged
attr title "Power consumption"
attr unit W
vector 1 WSN_EnergyEfficient.sensorNode0.energyStorage powerGeneration:vector ETV
attr interpolationmode sample-hold
attr recordingmode vector
attr source powerGenerationChanged
attr title "Power generation"
attr unit W
vector 2 WSN_EnergyEfficient.sensorNode0.energyStorage residualEnergyCapacity:vector ETV
attr interpolationmode linear
attr recordingmode vector
attr source residualEnergyCapacityChanged
attr title "Residual energy capacity"
attr unit J
vector 3 WSN_EnergyEfficient.sensorNode0.energyGenerator powerGeneration:vector ETV
attr interpolationmode sample-hold
attr recordingmode vector
attr source powerGenerationChanged
attr title "Power generation"
attr unit W
vector 4 WSN_EnergyEfficient.sensorNode0.lo[0].lo rcvdPkFromHl:vector(packetBytes) ETV
attr interpolationmode none
attr recordingmode vector(packetBytes)
attr source packetReceivedFromUpper
attr title "packets received from higher layer, packetBytes"
vector 5 WSN_EnergyEfficient.sensorNode0.lo[0].lo passedUpPk:vector(packetBytes) ETV
attr interpolationmode none
attr recordingmode vector(packetBytes)
attr source packetSentToUpper
attr title "packets passed to higher layer, packetBytes"
vector 6 WSN_EnergyEfficient.sensorNode0.lo[0] packetDropInterfaceDown:vector(packetBytes) ETV
attr interpolationmode none
attr recordingmode vector(packetBytes)
attr source packetDropReasonIsInterfaceDown(packetDropped)
attr title "packet drops: interface down, packetBytes"
vector 7 WSN_EnergyEfficient.sensorNode0.lo[0] packetDropNoCarrier:vector(packetBytes) ETV
attr interpolationmode none
attr recordingmode vector(packetBytes)
attr source packetDropReasonIsNoCarrier(packetDropped)
attr title "packet drops: no carrier, packetBytes"
vector 8 WSN_EnergyEfficient.sensorNode0.wlan[0].queue queueLength:vector ETV
attr autoWarmupFilter false
attr interpolationmode sample-hold
attr recordingmode vector
attr source "warmup(atomic(constant0(packetPushEnded) + count(packetPushStarted) - count(packetPulled) - count(packetRemoved) - count(packetDropped)))"
attr title "queue length"
attr unit pk
vector 9 WSN_EnergyEfficient.sensorNode0.wlan[0].queue queueBitLength:vector ETV
attr autoWarmupFilter false
attr interpolationmode sample-hold
attr recordingmode vector
attr source "warmup(atomic(constant0(packetPushEnded) + sum(packetLength(packetPushStarted)) - sum(packetLength(packetPulled)) - sum(packetLength(packetRemoved)) - sum(packetLength(packetDropped))))"
attr title "queue bit length"
attr unit b
vector 10 WSN_EnergyEfficient.sensorNode0.wlan[0].queue queueingTime:vector ETV
attr interpolationmode none
attr recordingmode vector
attr source queueingTime(packetPulled)
attr title "queueing times"
attr unit s
vector 11 WSN_EnergyEfficient.sensorNode0.wlan[0].queue incomingPacketLengths:vector ETV
attr interpolationmode none
attr recordingmode vector
attr source packetLength(packetPushStarted)
attr title "incoming packet lengths"
attr unit b
vector 12 WSN_EnergyEfficient.sensorNode0.wlan[0].queue incomingDataRate:vector ETV
attr interpolationmode linear
attr recordingmode vector
attr source throughput(packetPushStarted)
attr title "incoming datarate"
attr unit bps
vector 13 WSN_EnergyEfficient.sensorNode0.wlan[0].queue outgoingPacketLengths:vector ETV
attr interpolationmode none
attr recordingmode vector
attr source packetLength(packetPulled)
attr title "outgoing packet lengths"
attr unit b
vector 14 WSN_EnergyEfficient.sensorNode0.wlan[0].queue outgoingDataRate:vector ETV
attr interpolationmode linear
attr recordingmode vector
attr source throughput(packetPulled)
attr title "outgoing datarate"
attr unit bps
vector 15 WSN_EnergyEfficient.sensorNode0.wlan[0].queue droppedPacketLengthsQueueOverflow:vector ETV
attr interpolationmode none
attr recordingmode vector
attr source packetLength(packetDropReasonIsQueueOverflow(packetDropped))
attr title "dropped packet lengths: queue overflow"
attr unit b
vector 16 WSN_EnergyEfficient.sensorNode0.wlan[0].queue flowQueueingTime:vector ETV
attr interpolationmode none
attr recordingmode vector
attr source queueingTime(demuxFlow(packetPulled))
attr title "flow queueing times"
attr unit s
vector 17 WSN_EnergyEfficient.sensorNode0.wlan[0].queue flowIncomingDataRate:vector ETV
attr interpolationmode linear
attr recordingmode vector
attr source throughput(flowPacketLength(demuxFlow(packetPushStarted)))
attr title "flow specific incoming data rate"
attr unit bps
vector 18 WSN_EnergyEfficient.sensorNode0.wlan[0].queue flowOutgoingDataRate:vector ETV
attr interpolationmode linear
attr recordingmode vector
attr source throughput(flowPacketLength(demuxFlow(packetPulled)))
attr title "flow specific outgoing data rate"
attr unit bps
vector 19 WSN_EnergyEfficient.sensorNode0.wlan[0].mac packetDropNotAddressToUs:vector(packetBytes) ETV
attr interpolationmode none
attr recordingmode vector(packetBytes)
attr source packetDropReasonIsNotAddressedToUs(packetDropped)
attr title "packet drop: not addressed to us, packetBytes"
vector 20 WSN_EnergyEfficient.sensorNode0.wlan[0].mac packetDropIncorrectlyReceived:vector(packetBytes) ETV
attr interpolationmode none
attr recordingmode vector(packetBytes)
attr source packetDropReasonIsIncorrectlyReceived(packetDropped)
attr title "packet drop: incorrectly received, packetBytes"
vector 21 WSN_EnergyEfficient.sensorNode0.wlan[0].mac packetDropQueueOverflow:vector(packetBytes) ETV
attr interpolationmode none
attr recordingmode vector(packetBytes)
attr source packetDropReasonIsQueueOverflow(packetDropped)
attr title "packet drop: queue overflow, packetBytes"
vector 22 WSN_EnergyEfficient.sensorNode0.wlan[0].mac packetDropRetryLimitReached:vector(packetBytes) ETV
attr interpolationmode none
attr recordingmode vector(packetBytes)
attr source packetDropReasonIsRetryLimitReached(packetDropped)
attr title "packet drop: retry limit reached, packetBytes"
vector 23 WSN_EnergyEfficient.sensorNode0.wlan[0].mac packetDropBackoffLimitReached:vector(packetBytes) ETV
attr interpolationmode none
attr recordingmode vector(packetBytes)
attr source packetDropReasonIsCongestion(packetDropped)
attr title "packet drop: backoff limit reached, packetBytes"
vector 24 WSN_EnergyEfficient.sensorNode0.wlan[0].radio.energyConsumer powerConsumption:vector ETV
attr interpolationmode sample-hold
attr recordingmode vector
attr source powerConsumptionChanged
attr title "Power consumption"
attr unit W
vector 25 WSN_EnergyEfficient.sensorNode0.wlan[0].radio radioMode:vector ETV
attr interpolationmode sample-hold
attr recordingmode vector
attr source radioModeChanged
attr title "Radio mode"
vector 26 WSN_EnergyEfficient.sensorNode0.wlan[0].radio receptionState:vector ETV
attr interpolationmode sample-hold
attr recordingmode vector
attr source receptionStateChanged
attr title "Radio reception state"
vector 27 WSN_EnergyEfficient.sensorNode0.wlan[0].radio transmissionState:vector ETV
attr interpolationmode sample-hold
attr recordingmode vector
attr source transmissionStateChanged
attr title "Radio transmission state"
vector 28 WSN_EnergyEfficient.sensorNode0.wlan[0] packetDropInterfaceDown:vector(packetBytes) ETV
attr interpolationmode none
attr recordingmode vector(packetBytes)
attr source packetDropReasonIsInterfaceDown(packetDropped)
attr title "packet drops: interface down, packetBytes"
vector 29 WSN_EnergyEfficient.sensorNode0.wlan[0] packetDropNoCarrier:vector(packetBytes) ETV
attr interpolationmode none
attr recordingmode vector(packetBytes)
attr source packetDropReasonIsNoCarrier(packetDropped)
attr title "packet drops: no carrier, packetBytes"
vector 30 WSN_EnergyEfficient.sensorNode0.ipv4.ip packetDropAddressResolutionFailed:vector(packetBytes) ETV
attr interpolationmode none
attr recordingmode vector(packetBytes)
attr source packetDropReasonIsAddressResolutionFailed(packetDropped)
attr title "packet drop: address resolution failed, packetBytes"
vector 31 WSN_EnergyEfficient.sensorNode0.ipv4.ip packetDropHopLimitReached:vector(packetBytes) ETV
attr interpolationmode none
attr recordingmode vector(packetBytes)
attr source packetDropReasonIsHopLimitReached(packetDropped)
attr title "packet drop: hop limit reached, packetBytes"
vector 32 WSN_EnergyEfficient.sensorNode0.ipv4.ip packetDropForwardingDisabled:vector(packetBytes) ETV
attr interpolationmode none
attr recordingmode vector(packetBytes)
attr source packetDropReasonIsForwardingDisabled(packetDropped)
attr title "packet drop: forwarding disabled, packetBytes"
vector 33 WSN_EnergyEfficient.sensorNode0.ipv4.ip packetDropNoInterfaceFound:vector(packetBytes) ETV
attr interpolationmode none
attr recordingmode vector(packetBytes)
attr source packetDropReasonIsNoInterfaceFound(packetDropped)
attr title "packet drop: no interface found, packetBytes"
vector 34 WSN_EnergyEfficient.sensorNode0.ipv4.ip packetDropNoRouteFound:vector(packetBytes) ETV
attr interpolationmode none
attr recordingmode vector(packetBytes)
attr source packetDropReasonIsNoRouteFound(packetDropped)
attr title "packet drop: no route found, packetBytes"
vector 35 WSN_EnergyEfficient.sensorNode0.ipv4.ip packetDropUndefined:vector(packetBytes) ETV
attr interpolationmode none
attr recordingmode vector(packetBytes)
attr source packetDropReasonIsUndefined(packetDropped)
attr title "packet drop: undefined, packetBytes"
vector 36 WSN_EnergyEfficient.sensorNode0.ipv4.arp arpRequestSent:vector(packetBytes) ETV
attr recordingmode vector(packetBytes)
attr source arpRequestSent
attr title "ARP request sent, packetBytes"
vector 37 WSN_EnergyEfficient.sensorNode0.ipv4.arp arpReplySent:vector(packetBytes) ETV
attr recordingmode vector(packetBytes)
attr source arpReplySent
attr title "ARP replies sent, packetBytes"
vector 38 WSN_EnergyEfficient.sensorNode0.udp packetSent:vector(packetBytes) ETV
attr interpolationmode none
attr recordingmode vector(packetBytes)
attr source packetSent
attr title "packets sent, packetBytes"
vector 39 WSN_EnergyEfficient.sensorNode0.udp packetReceived:vector(packetBytes) ETV
attr interpolationmode none
attr recordingmode vector(packetBytes)
attr source packetReceived
attr title "packets received, packetBytes"
vector 40 WSN_EnergyEfficient.sensorNode0.udp passedUpPk:vector(count) ETV
attr interpolationmode none
attr recordingmode vector(count)
attr source packetSentToUpper
attr title "packets passed up, count"
vector 41 WSN_EnergyEfficient.sensorNode0.udp droppedPkWrongPort:vector(count) ETV
attr interpolationmode none
attr recordingmode vector(count)
attr source packetDropReasonIsNoPortFound(packetDropped)
attr title "packets dropped (wrong port), count"
vector 42 WSN_EnergyEfficient.sensorNode0.udp droppedPkBadChecksum:vector(count) ETV
attr interpolationmode none
attr recordingmode vector(count)
attr source packetDropReasonIsIncorrectlyReceived(packetDropped)
attr title "packets dropped (checksum error), count"
vector 43 WSN_EnergyEfficient.sensorNode0.app[0] rtt:vector ETV
attr interpolationmode none
attr recordingmode vector
attr title "ping round-trip time"
attr unit s
vector 44 WSN_EnergyEfficient.sensorNode0.app[0] numLost:vector ETV
attr interpolationmode none
attr recordingmode vector
attr title "pings lost"
vector 45 WSN_EnergyEfficient.sensorNode0.app[0] numOutOfOrderArrivals:vector ETV
attr interpolationmode none
attr recordingmode vector
attr title "ping out-of-order arrivals"
vector 46 WSN_EnergyEfficient.sensorNode0.app[0] pingTxSeq:vector ETV
attr interpolationmode none
attr recordingmode vector
attr title "ping tx seq"
vector 47 WSN_EnergyEfficient.sensorNode0.app[0] pingRxSeq:vector ETV
attr interpolationmode none
attr recordingmode vector
attr title "ping rx seq"
vector 48 WSN_EnergyEfficient.sensorNode0.app[1] packetReceived:vector(packetBytes) ETV
attr interpolationmode none
attr recordingmode vector(packetBytes)
attr source packetReceived
attr title "packets received, packetBytes"
vector 49 WSN_EnergyEfficient.sensorNode0.app[1] throughput:vector ETV
attr recordingmode vector
attr source throughput(packetReceived)
attr title throughput
attr unit bps
vector 50 WSN_EnergyEfficient.sensorNode0.app[1] packetSent:vector(packetBytes) ETV
attr interpolationmode none
attr recordingmode vector(packetBytes)
attr source packetSent
attr title "packets sent, packetBytes"
vector 51 WSN_EnergyEfficient.sensorNode0.app[1] rcvdPkLifetime:vector ETV
attr interpolationmode none
attr recordingmode vector
attr source dataAge(packetReceived)
attr title "received packet lifetime"
attr unit s
vector 52 WSN_EnergyEfficient.sensorNode0.app[1] rcvdPkSeqNo:vector ETV
attr interpolationmode none
attr recordingmode vector
attr source appPkSeqNo(packetReceived)
attr title "received packet sequence number"
vector 53 WSN_EnergyEfficient.sensorNode1.energyStorage powerConsumption:vector ETV
attr interpolationmode sample-hold
attr recordingmode vector
attr source powerConsumptionChanged
attr title "Power consumption"
attr unit W
vector 54 WSN_EnergyEfficient.sensorNode1.energyStorage powerGeneration:vector ETV
attr interpolationmode sample-hold
attr recordingmode vector
attr source powerGenerationChanged
attr title "Power generation"
attr unit W
vector 55 WSN_EnergyEfficient.sensorNode1.energyStorage residualEnergyCapacity:vector ETV
attr interpolationmode linear
attr recordingmode vector
attr source residualEnergyCapacityChanged
attr title "Residual energy capacity"
attr unit J
vector 56 WSN_EnergyEfficient.sensorNode1.energyGenerator powerGeneration:vector ETV
attr interpolationmode sample-hold
attr recordingmode vector
attr source powerGenerationChanged
attr title "Power generation"
attr unit W
vector 57 WSN_EnergyEfficient.sensorNode1.lo[0].lo rcvdPkFromHl:vector(packetBytes) ETV
attr interpolationmode none
attr recordingmode vector(packetBytes)
attr source packetReceivedFromUpper
attr title "packets received from higher layer, packetBytes"
vector 58 WSN_EnergyEfficient.sensorNode1.lo[0].lo passedUpPk:vector(packetBytes) ETV
attr interpolationmode none
attr recordingmode vector(packetBytes)
attr source packetSentToUpper
attr title "packets passed to higher layer, packetBytes"
vector 59 WSN_EnergyEfficient.sensorNode1.lo[0] packetDropInterfaceDown:vector(packetBytes) ETV
attr interpolationmode none
attr recordingmode vector(packetBytes)
attr source packetDropReasonIsInterfaceDown(packetDropped)
attr title "packet drops: interface down, packetBytes"
vector 60 WSN_EnergyEfficient.sensorNode1.lo[0] packetDropNoCarrier:vector(packetBytes) ETV
attr interpolationmode none
attr recordingmode vector(packetBytes)
attr source packetDropReasonIsNoCarrier(packetDropped)
attr title "packet drops: no carrier, packetBytes"
vector 61 WSN_EnergyEfficient.sensorNode1.wlan[0].queue queueLength:vector ETV
attr autoWarmupFilter false
attr interpolationmode sample-hold
attr recordingmode vector
attr source "warmup(atomic(constant0(packetPushEnded) + count(packetPushStarted) - count(packetPulled) - count(packetRemoved) - count(packetDropped)))"
attr title "queue length"
attr unit pk
vector 62 WSN_EnergyEfficient.sensorNode1.wlan[0].queue queueBitLength:vector ETV
attr autoWarmupFilter false
attr interpolationmode sample-hold
attr recordingmode vector
attr source "warmup(atomic(constant0(packetPushEnded) + sum(packetLength(packetPushStarted)) - sum(packetLength(packetPulled)) - sum(packetLength(packetRemoved)) - sum(packetLength(packetDropped))))"
attr title "queue bit length"
attr unit b
vector 63 WSN_EnergyEfficient.sensorNode1.wlan[0].queue queueingTime:vector ETV
attr interpolationmode none
attr recordingmode vector
attr source queueingTime(packetPulled)
attr title "queueing times"
attr unit s
vector 64 WSN_EnergyEfficient.sensorNode1.wlan[0].queue incomingPacketLengths:vector ETV
attr interpolationmode none
attr recordingmode vector
attr source packetLength(packetPushStarted)
attr title "incoming packet lengths"
attr unit b
vector 65 WSN_EnergyEfficient.sensorNode1.wlan[0].queue incomingDataRate:vector ETV
attr interpolationmode linear
attr recordingmode vector
attr source throughput(packetPushStarted)
attr title "incoming datarate"
attr unit bps
vector 66 WSN_EnergyEfficient.sensorNode1.wlan[0].queue outgoingPacketLengths:vector ETV
attr interpolationmode none
attr recordingmode vector
attr source packetLength(packetPulled)
attr title "outgoing packet lengths"
attr unit b
vector 67 WSN_EnergyEfficient.sensorNode1.wlan[0].queue outgoingDataRate:vector ETV
attr interpolationmode linear
attr recordingmode vector
attr source throughput(packetPulled)
attr title "outgoing datarate"
attr unit bps
vector 68 WSN_EnergyEfficient.sensorNode1.wlan[0].queue droppedPacketLengthsQueueOverflow:vector ETV
attr interpolationmode none
attr recordingmode vector
attr source packetLength(packetDropReasonIsQueueOverflow(packetDropped))
attr title "dropped packet lengths: queue overflow"
attr unit b
vector 69 WSN_EnergyEfficient.sensorNode1.wlan[0].queue flowQueueingTime:vector ETV
attr interpolationmode none
attr recordingmode vector
attr source queueingTime(demuxFlow(packetPulled))
attr title "flow queueing times"
attr unit s
vector 70 WSN_EnergyEfficient.sensorNode1.wlan[0].queue flowIncomingDataRate:vector ETV
attr interpolationmode linear
attr recordingmode vector
attr source throughput(flowPacketLength(demuxFlow(packetPushStarted)))
attr title "flow specific incoming data rate"
attr unit bps
vector 71 WSN_EnergyEfficient.sensorNode1.wlan[0].queue flowOutgoingDataRate:vector ETV
attr interpolationmode linear
attr recordingmode vector
attr source throughput(flowPacketLength(demuxFlow(packetPulled)))
attr title "flow specific outgoing data rate"
attr unit bps
vector 72 WSN_EnergyEfficient.sensorNode1.wlan[0].mac packetDropNotAddressToUs:vector(packetBytes) ETV
attr interpolationmode none
attr recordingmode vector(packetBytes)
attr source packetDropReasonIsNotAddressedToUs(packetDropped)
attr title "packet drop: not addressed to us, packetBytes"
vector 73 WSN_EnergyEfficient.sensorNode1.wlan[0].mac packetDropIncorrectlyReceived:vector(packetBytes) ETV
attr interpolationmode none
attr recordingmode vector(packetBytes)
attr source packetDropReasonIsIncorrectlyReceived(packetDropped)
attr title "packet drop: incorrectly received, packetBytes"
vector 74 WSN_EnergyEfficient.sensorNode1.wlan[0].mac packetDropQueueOverflow:vector(packetBytes) ETV
attr interpolationmode none
attr recordingmode vector(packetBytes)
attr source packetDropReasonIsQueueOverflow(packetDropped)
attr title "packet drop: queue overflow, packetBytes"
vector 75 WSN_EnergyEfficient.sensorNode1.wlan[0].mac packetDropRetryLimitReached:vector(packetBytes) ETV
attr interpolationmode none
attr recordingmode vector(packetBytes)
attr source packetDropReasonIsRetryLimitReached(packetDropped)
attr title "packet drop: retry limit reached, packetBytes"
vector 76 WSN_EnergyEfficient.sensorNode1.wlan[0].mac packetDropBackoffLimitReached:vector(packetBytes) ETV
attr interpolationmode none
attr recordingmode vector(packetBytes)
attr source packetDropReasonIsCongestion(packetDropped)
attr title "packet drop: backoff limit reached, packetBytes"
vector 77 WSN_EnergyEfficient.sensorNode1.wlan[0].radio.energyConsumer powerConsumption:vector ETV
attr interpolationmode sample-hold
attr recordingmode vector
attr source powerConsumptionChanged
attr title "Power consumption"
attr unit W
vector 78 WSN_EnergyEfficient.sensorNode1.wlan[0].radio radioMode:vector ETV
attr interpolationmode sample-hold
attr recordingmode vector
attr source radioModeChanged
attr title "Radio mode"
vector 79 WSN_EnergyEfficient.sensorNode1.wlan[0].radio receptionState:vector ETV
attr interpolationmode sample-hold
attr recordingmode vector
attr source receptionStateChanged
attr title "Radio reception state"
vector 80 WSN_EnergyEfficient.sensorNode1.wlan[0].radio transmissionState:vector ETV
attr interpolationmode sample-hold
attr recordingmode vector
attr source transmissionStateChanged
attr title "Radio transmission state"
vector 81 WSN_EnergyEfficient.sensorNode1.wlan[0] packetDropInterfaceDown:vector(packetBytes) ETV
attr interpolationmode none
attr recordingmode vector(packetBytes)
attr source packetDropReasonIsInterfaceDown(packetDropped)
attr title "packet drops: interface down, packetBytes"
vector 82 WSN_EnergyEfficient.sensorNode1.wlan[0] packetDropNoCarrier:vector(packetBytes) ETV
attr interpolationmode none
attr recordingmode vector(packetBytes)
attr source packetDropReasonIsNoCarrier(packetDropped)
attr title "packet drops: no carrier, packetBytes"
vector 83 WSN_EnergyEfficient.sensorNode1.ipv4.ip packetDropAddressResolutionFailed:vector(packetBytes) ETV
attr interpolationmode none
attr recordingmode vector(packetBytes)
attr source packetDropReasonIsAddressResolutionFailed(packetDropped)
attr title "packet drop: address resolution failed, packetBytes"
vector 84 WSN_EnergyEfficient.sensorNode1.ipv4.ip packetDropHopLimitReached:vector(packetBytes) ETV
attr interpolationmode none
attr recordingmode vector(packetBytes)
attr source packetDropReasonIsHopLimitReached(packetDropped)
attr title "packet drop: hop limit reached, packetBytes"
vector 85 WSN_EnergyEfficient.sensorNode1.ipv4.ip packetDropForwardingDisabled:vector(packetBytes) ETV
attr interpolationmode none
attr recordingmode vector(packetBytes)
attr source packetDropReasonIsForwardingDisabled(packetDropped)
attr title "packet drop: forwarding disabled, packetBytes"
vector 86 WSN_EnergyEfficient.sensorNode1.ipv4.ip packetDropNoInterfaceFound:vector(packetBytes) ETV
attr interpolationmode none
attr recordingmode vector(packetBytes)
attr source packetDropReasonIsNoInterfaceFound(packetDropped)
attr title "packet drop: no interface found, packetBytes"
vector 87 WSN_EnergyEfficient.sensorNode1.ipv4.ip packetDropNoRouteFound:vector(packetBytes) ETV
attr interpolationmode none
attr recordingmode vector(packetBytes)
attr source packetDropReasonIsNoRouteFound(packetDropped)
attr title "packet drop: no route found, packetBytes"
vector 88 WSN_EnergyEfficient.sensorNode1.ipv4.ip packetDropUndefined:vector(packetBytes) ETV
attr interpolationmode none
attr recordingmode vector(packetBytes)
attr source packetDropReasonIsUndefined(packetDropped)
attr title "packet drop: undefined, packetBytes"
vector 89 WSN_EnergyEfficient.sensorNode1.ipv4.arp arpRequestSent:vector(packetBytes) ETV
attr recordingmode vector(packetBytes)
attr source arpRequestSent
attr title "ARP request sent, packetBytes"
vector 90 WSN_EnergyEfficient.sensorNode1.ipv4.arp arpReplySent:vector(packetBytes) ETV
attr recordingmode vector(packetBytes)
attr source arpReplySent
attr title "ARP replies sent, packetBytes"
vector 91 WSN_EnergyEfficient.sensorNode1.udp packetSent:vector(packetBytes) ETV
attr interpolationmode none
attr recordingmode vector(packetBytes)
attr source packetSent
attr title "packets sent, packetBytes"
vector 92 WSN_EnergyEfficient.sensorNode1.udp packetReceived:vector(packetBytes) ETV
attr interpolationmode none
attr recordingmode vector(packetBytes)
attr source packetReceived
attr title "packets received, packetBytes"
vector 93 WSN_EnergyEfficient.sensorNode1.udp passedUpPk:vector(count) ETV
attr interpolationmode none
attr recordingmode vector(count)
attr source packetSentToUpper
attr title "packets passed up, count"
vector 94 WSN_EnergyEfficient.sensorNode1.udp droppedPkWrongPort:vector(count) ETV
attr interpolationmode none
attr recordingmode vector(count)
attr source packetDropReasonIsNoPortFound(packetDropped)
attr title "packets dropped (wrong port), count"
vector 95 WSN_EnergyEfficient.sensorNode1.udp droppedPkBadChecksum:vector(count) ETV
attr interpolationmode none
attr recordingmode vector(count)
attr source packetDropReasonIsIncorrectlyReceived(packetDropped)
attr title "packets dropped (checksum error), count"
vector 96 WSN_EnergyEfficient.sensorNode1.app[0] rtt:vector ETV
attr interpolationmode none
attr recordingmode vector
attr title "ping round-trip time"
attr unit s
vector 97 WSN_EnergyEfficient.sensorNode1.app[0] numLost:vector ETV
attr interpolationmode none
attr recordingmode vector
attr title "pings lost"
vector 98 WSN_EnergyEfficient.sensorNode1.app[0] numOutOfOrderArrivals:vector ETV
attr interpolationmode none
attr recordingmode vector
attr title "ping out-of-order arrivals"
vector 99 WSN_EnergyEfficient.sensorNode1.app[0] pingTxSeq:vector ETV
attr interpolationmode none
attr recordingmode vector
attr title "ping tx seq"
vector 100 WSN_EnergyEfficient.sensorNode1.app[0] pingRxSeq:vector ETV
attr interpolationmode none
attr recordingmode vector
attr title "ping rx seq"
vector 101 WSN_EnergyEfficient.sensorNode1.app[1] packetReceived:vector(packetBytes) ETV
attr interpolationmode none
attr recordingmode vector(packetBytes)
attr source packetReceived
attr title "packets received, packetBytes"
vector 102 WSN_EnergyEfficient.sensorNode1.app[1] throughput:vector ETV
attr recordingmode vector
attr source throughput(packetReceived)
attr title throughput
attr unit bps
vector 103 WSN_EnergyEfficient.sensorNode1.app[1] packetSent:vector(packetBytes) ETV
attr interpolationmode none
attr recordingmode vector(packetBytes)
attr source packetSent
attr title "packets sent, packetBytes"
vector 104 WSN_EnergyEfficient.sensorNode1.app[1] rcvdPkLifetime:vector ETV
attr interpolationmode none
attr recordingmode vector
attr source dataAge(packetReceived)
attr title "received packet lifetime"
attr unit s
vector 105 WSN_EnergyEfficient.sensorNode1.app[1] rcvdPkSeqNo:vector ETV
attr interpolationmode none
attr recordingmode vector
attr source appPkSeqNo(packetReceived)
attr title "received packet sequence number"
vector 106 WSN_EnergyEfficient.sensorNode2.energyStorage powerConsumption:vector ETV
attr interpolationmode sample-hold
attr recordingmode vector
attr source powerConsumptionChanged
attr title "Power consumption"
attr unit W
vector 107 WSN_EnergyEfficient.sensorNode2.energyStorage powerGeneration:vector ETV
attr interpolationmode sample-hold
attr recordingmode vector
attr source powerGenerationChanged
attr title "Power generation"
attr unit W
vector 108 WSN_EnergyEfficient.sensorNode2.energyStorage residualEnergyCapacity:vector ETV
attr interpolationmode linear
attr recordingmode vector
attr source residualEnergyCapacityChanged
attr title "Residual energy capacity"
attr unit J
vector 109 WSN_EnergyEfficient.sensorNode2.energyGenerator powerGeneration:vector ETV
attr interpolationmode sample-hold
attr recordingmode vector
attr source powerGenerationChanged
attr title "Power generation"
attr unit W
vector 110 WSN_EnergyEfficient.sensorNode2.lo[0].lo rcvdPkFromHl:vector(packetBytes) ETV
attr interpolationmode none
attr recordingmode vector(packetBytes)
attr source packetReceivedFromUpper
attr title "packets received from higher layer, packetBytes"
vector 111 WSN_EnergyEfficient.sensorNode2.lo[0].lo passedUpPk:vector(packetBytes) ETV
attr interpolationmode none
attr recordingmode vector(packetBytes)
attr source packetSentToUpper
attr title "packets passed to higher layer, packetBytes"
vector 112 WSN_EnergyEfficient.sensorNode2.lo[0] packetDropInterfaceDown:vector(packetBytes) ETV
attr interpolationmode none
attr recordingmode vector(packetBytes)
attr source packetDropReasonIsInterfaceDown(packetDropped)
attr title "packet drops: interface down, packetBytes"
vector 113 WSN_EnergyEfficient.sensorNode2.lo[0] packetDropNoCarrier:vector(packetBytes) ETV
attr interpolationmode none
attr recordingmode vector(packetBytes)
attr source packetDropReasonIsNoCarrier(packetDropped)
attr title "packet drops: no carrier, packetBytes"
vector 114 WSN_EnergyEfficient.sensorNode2.wlan[0].queue queueLength:vector ETV
attr autoWarmupFilter false
attr interpolationmode sample-hold
attr recordingmode vector
attr source "warmup(atomic(constant0(packetPushEnded) + count(packetPushStarted) - count(packetPulled) - count(packetRemoved) - count(packetDropped)))"
attr title "queue length"
attr unit pk
vector 115 WSN_EnergyEfficient.sensorNode2.wlan[0].queue queueBitLength:vector ETV
attr autoWarmupFilter false
attr interpolationmode sample-hold
attr recordingmode vector
attr source "warmup(atomic(constant0(packetPushEnded) + sum(packetLength(packetPushStarted)) - sum(packetLength(packetPulled)) - sum(packetLength(packetRemoved)) - sum(packetLength(packetDropped))))"
attr title "queue bit length"
attr unit b
vector 116 WSN_EnergyEfficient.sensorNode2.wlan[0].queue queueingTime:vector ETV
attr interpolationmode none
attr recordingmode vector
attr source queueingTime(packetPulled)
attr title "queueing times"
attr unit s
vector 117 WSN_EnergyEfficient.sensorNode2.wlan[0].queue incomingPacketLengths:vector ETV
attr interpolationmode none
attr recordingmode vector
attr source packetLength(packetPushStarted)
attr title "incoming packet lengths"
attr unit b
vector 118 WSN_EnergyEfficient.sensorNode2.wlan[0].queue incomingDataRate:vector ETV
attr interpolationmode linear
attr recordingmode vector
attr source throughput(packetPushStarted)
attr title "incoming datarate"
attr unit bps
vector 119 WSN_EnergyEfficient.sensorNode2.wlan[0].queue outgoingPacketLengths:vector ETV
attr interpolationmode none
attr recordingmode vector
attr source packetLength(packetPulled)
attr title "outgoing packet lengths"
attr unit b
vector 120 WSN_EnergyEfficient.sensorNode2.wlan[0].queue outgoingDataRate:vector ETV
attr interpolationmode linear
attr recordingmode vector
attr source throughput(packetPulled)
attr title "outgoing datarate"
attr unit bps
vector 121 WSN_EnergyEfficient.sensorNode2.wlan[0].queue droppedPacketLengthsQueueOverflow:vector ETV
attr interpolationmode none
attr recordingmode vector
attr source packetLength(packetDropReasonIsQueueOverflow(packetDropped))
attr title "dropped packet lengths: queue overflow"
attr unit b
vector 122 WSN_EnergyEfficient.sensorNode2.wlan[0].queue flowQueueingTime:vector ETV
attr interpolationmode none
attr recordingmode vector
attr source queueingTime(demuxFlow(packetPulled))
attr title "flow queueing times"
attr unit s
vector 123 WSN_EnergyEfficient.sensorNode2.wlan[0].queue flowIncomingDataRate:vector ETV
attr interpolationmode linear
attr recordingmode vector
attr source throughput(flowPacketLength(demuxFlow(packetPushStarted)))
attr title "flow specific incoming data rate"
attr unit bps
vector 124 WSN_EnergyEfficient.sensorNode2.wlan[0].queue flowOutgoingDataRate:vector ETV
attr interpolationmode linear
attr recordingmode vector
attr source throughput(flowPacketLength(demuxFlow(packetPulled)))
attr title "flow specific outgoing data rate"
attr unit bps
vector 125 WSN_EnergyEfficient.sensorNode2.wlan[0].mac packetDropNotAddressToUs:vector(packetBytes) ETV
attr interpolationmode none
attr recordingmode vector(packetBytes)
attr source packetDropReasonIsNotAddressedToUs(packetDropped)
attr title "packet drop: not addressed to us, packetBytes"
vector 126 WSN_EnergyEfficient.sensorNode2.wlan[0].mac packetDropIncorrectlyReceived:vector(packetBytes) ETV
attr interpolationmode none
attr recordingmode vector(packetBytes)
attr source packetDropReasonIsIncorrectlyReceived(packetDropped)
attr title "packet drop: incorrectly received, packetBytes"
vector 127 WSN_EnergyEfficient.sensorNode2.wlan[0].mac packetDropQueueOverflow:vector(packetBytes) ETV
attr interpolationmode none
attr recordingmode vector(packetBytes)
attr source packetDropReasonIsQueueOverflow(packetDropped)
attr title "packet drop: queue overflow, packetBytes"
vector 128 WSN_EnergyEfficient.sensorNode2.wlan[0].mac packetDropRetryLimitReached:vector(packetBytes) ETV
attr interpolationmode none
attr recordingmode vector(packetBytes)
attr source packetDropReasonIsRetryLimitReached(packetDropped)
attr title "packet drop: retry limit reached, packetBytes"
vector 129 WSN_EnergyEfficient.sensorNode2.wlan[0].mac packetDropBackoffLimitReached:vector(packetBytes) ETV
attr interpolationmode none
attr recordingmode vector(packetBytes)
attr source packetDropReasonIsCongestion(packetDropped)
attr title "packet drop: backoff limit reached, packetBytes"
vector 130 WSN_EnergyEfficient.sensorNode2.wlan[0].radio.energyConsumer powerConsumption:vector ETV
attr interpolationmode sample-hold
attr recordingmode vector
attr source powerConsumptionChanged
attr title "Power consumption"
attr unit W
vector 131 WSN_EnergyEfficient.sensorNode2.wlan[0].radio radioMode:vector ETV
attr interpolationmode sample-hold
attr recordingmode vector
attr source radioModeChanged
attr title "Radio mode"
vector 132 WSN_EnergyEfficient.sensorNode2.wlan[0].radio receptionState:vector ETV
attr interpolationmode sample-hold
attr recordingmode vector
attr source receptionStateChanged
attr title "Radio reception state"
vector 133 WSN_EnergyEfficient.sensorNode2.wlan[0].radio transmissionState:vector ETV
attr interpolationmode sample-hold
attr recordingmode vector
attr source transmissionStateChanged
attr title "Radio transmission state"
vector 134 WSN_EnergyEfficient.sensorNode2.wlan[0] packetDropInterfaceDown:vector(packetBytes) ETV
attr interpolationmode none
attr recordingmode vector(packetBytes)
attr source packetDropReasonIsInterfaceDown(packetDropped)
attr title "packet drops: interface down, packetBytes"
vector 135 WSN_EnergyEfficient.sensorNode2.wlan[0] packetDropNoCarrier:vector(packetBytes) ETV
attr interpolationmode none
attr recordingmode vector(packetBytes)
attr source packetDropReasonIsNoCarrier(packetDropped)
attr title "packet drops: no carrier, packetBytes"
vector 136 WSN_EnergyEfficient.sensorNode2.ipv4.ip packetDropAddressResolutionFailed:vector(packetBytes) ETV
attr interpolationmode none
attr recordingmode vector(packetBytes)
attr source packetDropReasonIsAddressResolutionFailed(packetDropped)
attr title "packet drop: address resolution failed, packetBytes"
vector 137 WSN_EnergyEfficient.sensorNode2.ipv4.ip packetDropHopLimitReached:vector(packetBytes) ETV
attr interpolationmode none
attr recordingmode vector(packetBytes)
attr source packetDropReasonIsHopLimitReached(packetDropped)
attr title "packet drop: hop limit reached, packetBytes"
vector 138 WSN_EnergyEfficient.sensorNode2.ipv4.ip packetDropForwardingDisabled:vector(packetBytes) ETV
attr interpolationmode none
attr recordingmode vector(packetBytes)
attr source packetDropReasonIsForwardingDisabled(packetDropped)
attr title "packet drop: forwarding disabled, packetBytes"
vector 139 WSN_EnergyEfficient.sensorNode2.ipv4.ip packetDropNoInterfaceFound:vector(packetBytes) ETV
attr interpolationmode none
attr recordingmode vector(packetBytes)
attr source packetDropReasonIsNoInterfaceFound(packetDropped)
attr title "packet drop: no interface found, packetBytes"
vector 140 WSN_EnergyEfficient.sensorNode2.ipv4.ip packetDropNoRouteFound:vector(packetBytes) ETV
attr interpolationmode none
attr recordingmode vector(packetBytes)
attr source packetDropReasonIsNoRouteFound(packetDropped)
attr title "packet drop: no route found, packetBytes"
vector 141 WSN_EnergyEfficient.sensorNode2.ipv4.ip packetDropUndefined:vector(packetBytes) ETV
attr interpolationmode none
attr recordingmode vector(packetBytes)
attr source packetDropReasonIsUndefined(packetDropped)
attr title "packet drop: undefined, packetBytes"
vector 142 WSN_EnergyEfficient.sensorNode2.ipv4.arp arpRequestSent:vector(packetBytes) ETV
attr recordingmode vector(packetBytes)
attr source arpRequestSent
attr title "ARP request sent, packetBytes"
vector 143 WSN_EnergyEfficient.sensorNode2.ipv4.arp arpReplySent:vector(packetBytes) ETV
attr recordingmode vector(packetBytes)
attr source arpReplySent
attr title "ARP replies sent, packetBytes"
vector 144 WSN_EnergyEfficient.sensorNode2.udp packetSent:vector(packetBytes) ETV
attr interpolationmode none
attr recordingmode vector(packetBytes)
attr source packetSent
attr title "packets sent, packetBytes"
vector 145 WSN_EnergyEfficient.sensorNode2.udp packetReceived:vector(packetBytes) ETV
attr interpolationmode none
attr recordingmode vector(packetBytes)
attr source packetReceived
attr title "packets received, packetBytes"
vector 146 WSN_EnergyEfficient.sensorNode2.udp passedUpPk:vector(count) ETV
attr interpolationmode none
attr recordingmode vector(count)
attr source packetSentToUpper
attr title "packets passed up, count"
vector 147 WSN_EnergyEfficient.sensorNode2.udp droppedPkWrongPort:vector(count) ETV
attr interpolationmode none
attr recordingmode vector(count)
attr source packetDropReasonIsNoPortFound(packetDropped)
attr title "packets dropped (wrong port), count"
vector 148 WSN_EnergyEfficient.sensorNode2.udp droppedPkBadChecksum:vector(count) ETV
attr interpolationmode none
attr recordingmode vector(count)
attr source packetDropReasonIsIncorrectlyReceived(packetDropped)
attr title "packets dropped (checksum error), count"
vector 149 WSN_EnergyEfficient.sensorNode2.app[0] rtt:vector ETV
attr interpolationmode none
attr recordingmode vector
attr title "ping round-trip time"
attr unit s
vector 150 WSN_EnergyEfficient.sensorNode2.app[0] numLost:vector ETV
attr interpolationmode none
attr recordingmode vector
attr title "pings lost"
vector 151 WSN_EnergyEfficient.sensorNode2.app[0] numOutOfOrderArrivals:vector ETV
attr interpolationmode none
attr recordingmode vector
attr title "ping out-of-order arrivals"
vector 152 WSN_EnergyEfficient.sensorNode2.app[0] pingTxSeq:vector ETV
attr interpolationmode none
attr recordingmode vector
attr title "ping tx seq"
vector 153 WSN_EnergyEfficient.sensorNode2.app[0] pingRxSeq:vector ETV
attr interpolationmode none
attr recordingmode vector
attr title "ping rx seq"
vector 154 WSN_EnergyEfficient.sensorNode2.app[1] packetReceived:vector(packetBytes) ETV
attr interpolationmode none
attr recordingmode vector(packetBytes)
attr source packetReceived
attr title "packets received, packetBytes"
vector 155 WSN_EnergyEfficient.sensorNode2.app[1] throughput:vector ETV
attr recordingmode vector
attr source throughput(packetReceived)
attr title throughput
attr unit bps
vector 156 WSN_EnergyEfficient.sensorNode2.app[1] packetSent:vector(packetBytes) ETV
attr interpolationmode none
attr recordingmode vector(packetBytes)
attr source packetSent
attr title "packets sent, packetBytes"
vector 157 WSN_EnergyEfficient.sensorNode2.app[1] rcvdPkLifetime:vector ETV
attr interpolationmode none
attr recordingmode vector
attr source dataAge(packetReceived)
attr title "received packet lifetime"
attr unit s
vector 158 WSN_EnergyEfficient.sensorNode2.app[1] rcvdPkSeqNo:vector ETV
attr interpolationmode none
attr recordingmode vector
attr source appPkSeqNo(packetReceived)
attr title "received packet sequence number"
vector 159 WSN_EnergyEfficient.sensorNode3.energyStorage powerConsumption:vector ETV
attr interpolationmode sample-hold
attr recordingmode vector
attr source powerConsumptionChanged
attr title "Power consumption"
attr unit W
vector 160 WSN_EnergyEfficient.sensorNode3.energyStorage powerGeneration:vector ETV
attr interpolationmode sample-hold
attr recordingmode vector
attr source powerGenerationChanged
attr title "Power generation"
attr unit W
vector 161 WSN_EnergyEfficient.sensorNode3.energyStorage residualEnergyCapacity:vector ETV
attr interpolationmode linear
attr recordingmode vector
attr source residualEnergyCapacityChanged
attr title "Residual energy capacity"
attr unit J
vector 162 WSN_EnergyEfficient.sensorNode3.energyGenerator powerGeneration:vector ETV
attr interpolationmode sample-hold
attr recordingmode vector
attr source powerGenerationChanged
attr title "Power generation"
attr unit W
vector 163 WSN_EnergyEfficient.sensorNode3.lo[0].lo rcvdPkFromHl:vector(packetBytes) ETV
attr interpolationmode none
attr recordingmode vector(packetBytes)
attr source packetReceivedFromUpper
attr title "packets received from higher layer, packetBytes"
vector 164 WSN_EnergyEfficient.sensorNode3.lo[0].lo passedUpPk:vector(packetBytes) ETV
attr interpolationmode none
attr recordingmode vector(packetBytes)
attr source packetSentToUpper
attr title "packets passed to higher layer, packetBytes"
vector 165 WSN_EnergyEfficient.sensorNode3.lo[0] packetDropInterfaceDown:vector(packetBytes) ETV
attr interpolationmode none
attr recordingmode vector(packetBytes)
attr source packetDropReasonIsInterfaceDown(packetDropped)
attr title "packet drops: interface down, packetBytes"
vector 166 WSN_EnergyEfficient.sensorNode3.lo[0] packetDropNoCarrier:vector(packetBytes) ETV
attr interpolationmode none
attr recordingmode vector(packetBytes)
attr source packetDropReasonIsNoCarrier(packetDropped)
attr title "packet drops: no carrier, packetBytes"
vector 167 WSN_EnergyEfficient.sensorNode3.wlan[0].queue queueLength:vector ETV
attr autoWarmupFilter false
attr interpolationmode sample-hold
attr recordingmode vector
attr source "warmup(atomic(constant0(packetPushEnded) + count(packetPushStarted) - count(packetPulled) - count(packetRemoved) - count(packetDropped)))"
attr title "queue length"
attr unit pk
vector 168 WSN_EnergyEfficient.sensorNode3.wlan[0].queue queueBitLength:vector ETV
attr autoWarmupFilter false
attr interpolationmode sample-hold
attr recordingmode vector
attr source "warmup(atomic(constant0(packetPushEnded) + sum(packetLength(packetPushStarted)) - sum(packetLength(packetPulled)) - sum(packetLength(packetRemoved)) - sum(packetLength(packetDropped))))"
attr title "queue bit length"
attr unit b
vector 169 WSN_EnergyEfficient.sensorNode3.wlan[0].queue queueingTime:vector ETV
attr interpolationmode none
attr recordingmode vector
attr source queueingTime(packetPulled)
attr title "queueing times"
attr unit s
vector 170 WSN_EnergyEfficient.sensorNode3.wlan[0].queue incomingPacketLengths:vector ETV
attr interpolationmode none
attr recordingmode vector
attr source packetLength(packetPushStarted)
attr title "incoming packet lengths"
attr unit b
vector 171 WSN_EnergyEfficient.sensorNode3.wlan[0].queue incomingDataRate:vector ETV
attr interpolationmode linear
attr recordingmode vector
attr source throughput(packetPushStarted)
attr title "incoming datarate"
attr unit bps
vector 172 WSN_EnergyEfficient.sensorNode3.wlan[0].queue outgoingPacketLengths:vector ETV
attr interpolationmode none
attr recordingmode vector
attr source packetLength(packetPulled)
attr title "outgoing packet lengths"
attr unit b
vector 173 WSN_EnergyEfficient.sensorNode3.wlan[0].queue outgoingDataRate:vector ETV
attr interpolationmode linear
attr recordingmode vector
attr source throughput(packetPulled)
attr title "outgoing datarate"
attr unit bps
vector 174 WSN_EnergyEfficient.sensorNode3.wlan[0].queue droppedPacketLengthsQueueOverflow:vector ETV
attr interpolationmode none
attr recordingmode vector
attr source packetLength(packetDropReasonIsQueueOverflow(packetDropped))
attr title "dropped packet lengths: queue overflow"
attr unit b
vector 175 WSN_EnergyEfficient.sensorNode3.wlan[0].queue flowQueueingTime:vector ETV
attr interpolationmode none
attr recordingmode vector
attr source queueingTime(demuxFlow(packetPulled))
attr title "flow queueing times"
attr unit s
vector 176 WSN_EnergyEfficient.sensorNode3.wlan[0].queue flowIncomingDataRate:vector ETV
attr interpolationmode linear
attr recordingmode vector
attr source throughput(flowPacketLength(demuxFlow(packetPushStarted)))
attr title "flow specific incoming data rate"
attr unit bps
vector 177 WSN_EnergyEfficient.sensorNode3.wlan[0].queue flowOutgoingDataRate:vector ETV
attr interpolationmode linear
attr recordingmode vector
attr source throughput(flowPacketLength(demuxFlow(packetPulled)))
attr title "flow specific outgoing data rate"
attr unit bps
vector 178 WSN_EnergyEfficient.sensorNode3.wlan[0].mac packetDropNotAddressToUs:vector(packetBytes) ETV
attr interpolationmode none
attr recordingmode vector(packetBytes)
attr source packetDropReasonIsNotAddressedToUs(packetDropped)
attr title "packet drop: not addressed to us, packetBytes"
vector 179 WSN_EnergyEfficient.sensorNode3.wlan[0].mac packetDropIncorrectlyReceived:vector(packetBytes) ETV
attr interpolationmode none
attr recordingmode vector(packetBytes)
attr source packetDropReasonIsIncorrectlyReceived(packetDropped)
attr title "packet drop: incorrectly received, packetBytes"
vector 180 WSN_EnergyEfficient.sensorNode3.wlan[0].mac packetDropQueueOverflow:vector(packetBytes) ETV
attr interpolationmode none
attr recordingmode vector(packetBytes)
attr source packetDropReasonIsQueueOverflow(packetDropped)
attr title "packet drop: queue overflow, packetBytes"
vector 181 WSN_EnergyEfficient.sensorNode3.wlan[0].mac packetDropRetryLimitReached:vector(packetBytes) ETV
attr interpolationmode none
attr recordingmode vector(packetBytes)
attr source packetDropReasonIsRetryLimitReached(packetDropped)
attr title "packet drop: retry limit reached, packetBytes"
vector 182 WSN_EnergyEfficient.sensorNode3.wlan[0].mac packetDropBackoffLimitReached:vector(packetBytes) ETV
attr interpolationmode none
attr recordingmode vector(packetBytes)
attr source packetDropReasonIsCongestion(packetDropped)
attr title "packet drop: backoff limit reached, packetBytes"
vector 183 WSN_EnergyEfficient.sensorNode3.wlan[0].radio.energyConsumer powerConsumption:vector ETV
attr interpolationmode sample-hold
attr recordingmode vector
attr source powerConsumptionChanged
attr title "Power consumption"
attr unit W
vector 184 WSN_EnergyEfficient.sensorNode3.wlan[0].radio radioMode:vector ETV
attr interpolationmode sample-hold
attr recordingmode vector
attr source radioModeChanged
attr title "Radio mode"
vector 185 WSN_EnergyEfficient.sensorNode3.wlan[0].radio receptionState:vector ETV
attr interpolationmode sample-hold
attr recordingmode vector
attr source receptionStateChanged
attr title "Radio reception state"
vector 186 WSN_EnergyEfficient.sensorNode3.wlan[0].radio transmissionState:vector ETV
attr interpolationmode sample-hold
attr recordingmode vector
attr source transmissionStateChanged
attr title "Radio transmission state"
vector 187 WSN_EnergyEfficient.sensorNode3.wlan[0] packetDropInterfaceDown:vector(packetBytes) ETV
attr interpolationmode none
attr recordingmode vector(packetBytes)
attr source packetDropReasonIsInterfaceDown(packetDropped)
attr title "packet drops: interface down, packetBytes"
vector 188 WSN_EnergyEfficient.sensorNode3.wlan[0] packetDropNoCarrier:vector(packetBytes) ETV
attr interpolationmode none
attr recordingmode vector(packetBytes)
attr source packetDropReasonIsNoCarrier(packetDropped)
attr title "packet drops: no carrier, packetBytes"
vector 189 WSN_EnergyEfficient.sensorNode3.ipv4.ip packetDropAddressResolutionFailed:vector(packetBytes) ETV
attr interpolationmode none
attr recordingmode vector(packetBytes)
attr source packetDropReasonIsAddressResolutionFailed(packetDropped)
attr title "packet drop: address resolution failed, packetBytes"
vector 190 WSN_EnergyEfficient.sensorNode3.ipv4.ip packetDropHopLimitReached:vector(packetBytes) ETV
attr interpolationmode none
attr recordingmode vector(packetBytes)
attr source packetDropReasonIsHopLimitReached(packetDropped)
attr title "packet drop: hop limit reached, packetBytes"
vector 191 WSN_EnergyEfficient.sensorNode3.ipv4.ip packetDropForwardingDisabled:vector(packetBytes) ETV
attr interpolationmode none
attr recordingmode vector(packetBytes)
attr source packetDropReasonIsForwardingDisabled(packetDropped)
attr title "packet drop: forwarding disabled, packetBytes"
vector 192 WSN_EnergyEfficient.sensorNode3.ipv4.ip packetDropNoInterfaceFound:vector(packetBytes) ETV
attr interpolationmode none
attr recordingmode vector(packetBytes)
attr source packetDropReasonIsNoInterfaceFound(packetDropped)
attr title "packet drop: no interface found, packetBytes"
vector 193 WSN_EnergyEfficient.sensorNode3.ipv4.ip packetDropNoRouteFound:vector(packetBytes) ETV
attr interpolationmode none
attr recordingmode vector(packetBytes)
attr source packetDropReasonIsNoRouteFound(packetDropped)
attr title "packet drop: no route found, packetBytes"
vector 194 WSN_EnergyEfficient.sensorNode3.ipv4.ip packetDropUndefined:vector(packetBytes) ETV
attr interpolationmode none
attr recordingmode vector(packetBytes)
attr source packetDropReasonIsUndefined(packetDropped)
attr title "packet drop: undefined, packetBytes"
vector 195 WSN_EnergyEfficient.sensorNode3.ipv4.arp arpRequestSent:vector(packetBytes) ETV
attr recordingmode vector(packetBytes)
attr source arpRequestSent
attr title "ARP request sent, packetBytes"
vector 196 WSN_EnergyEfficient.sensorNode3.ipv4.arp arpReplySent:vector(packetBytes) ETV
attr recordingmode vector(packetBytes)
attr source arpReplySent
attr title "ARP replies sent, packetBytes"
vector 197 WSN_EnergyEfficient.sensorNode3.udp packetSent:vector(packetBytes) ETV
attr interpolationmode none
attr recordingmode vector(packetBytes)
attr source packetSent
attr title "packets sent, packetBytes"
vector 198 WSN_EnergyEfficient.sensorNode3.udp packetReceived:vector(packetBytes) ETV
attr interpolationmode none
attr recordingmode vector(packetBytes)
attr source packetReceived
attr title "packets received, packetBytes"
vector 199 WSN_EnergyEfficient.sensorNode3.udp passedUpPk:vector(count) ETV
attr interpolationmode none
attr recordingmode vector(count)
attr source packetSentToUpper
attr title "packets passed up, count"
vector 200 WSN_EnergyEfficient.sensorNode3.udp droppedPkWrongPort:vector(count) ETV
attr interpolationmode none
attr recordingmode vector(count)
attr source packetDropReasonIsNoPortFound(packetDropped)
attr title "packets dropped (wrong port), count"
vector 201 WSN_EnergyEfficient.sensorNode3.udp droppedPkBadChecksum:vector(count) ETV
attr interpolationmode none
attr recordingmode vector(count)
attr source packetDropReasonIsIncorrectlyReceived(packetDropped)
attr title "packets dropped (checksum error), count"
vector 202 WSN_EnergyEfficient.sensorNode3.app[0] rtt:vector ETV
attr interpolationmode none
attr recordingmode vector
attr title "ping round-trip time"
attr unit s
vector 203 WSN_EnergyEfficient.sensorNode3.app[0] numLost:vector ETV
attr interpolationmode none
attr recordingmode vector
attr title "pings lost"
vector 204 WSN_EnergyEfficient.sensorNode3.app[0] numOutOfOrderArrivals:vector ETV
attr interpolationmode none
attr recordingmode vector
attr title "ping out-of-order arrivals"
vector 205 WSN_EnergyEfficient.sensorNode3.app[0] pingTxSeq:vector ETV
attr interpolationmode none
attr recordingmode vector
attr title "ping tx seq"
vector 206 WSN_EnergyEfficient.sensorNode3.app[0] pingRxSeq:vector ETV
attr interpolationmode none
attr recordingmode vector
attr title "ping rx seq"
vector 207 WSN_EnergyEfficient.sensorNode3.app[1] packetReceived:vector(packetBytes) ETV
attr interpolationmode none
attr recordingmode vector(packetBytes)
attr source packetReceived
attr title "packets received, packetBytes"
vector 208 WSN_EnergyEfficient.sensorNode3.app[1] throughput:vector ETV
attr recordingmode vector
attr source throughput(packetReceived)
attr title throughput
attr unit bps
vector 209 WSN_EnergyEfficient.sensorNode3.app[1] packetSent:vector(packetBytes) ETV
attr interpolationmode none
attr recordingmode vector(packetBytes)
attr source packetSent
attr title "packets sent, packetBytes"
vector 210 WSN_EnergyEfficient.sensorNode3.app[1] rcvdPkLifetime:vector ETV
attr interpolationmode none
attr recordingmode vector
attr source dataAge(packetReceived)
attr title "received packet lifetime"
attr unit s
vector 211 WSN_EnergyEfficient.sensorNode3.app[1] rcvdPkSeqNo:vector ETV
attr interpolationmode none
attr recordingmode vector
attr source appPkSeqNo(packetReceived)
attr title "received packet sequence number"
vector 212 WSN_EnergyEfficient.sensorNode4.energyStorage powerConsumption:vector ETV
attr interpolationmode sample-hold
attr recordingmode vector
attr source powerConsumptionChanged
attr title "Power consumption"
attr unit W
vector 213 WSN_EnergyEfficient.sensorNode4.energyStorage powerGeneration:vector ETV
attr interpolationmode sample-hold
attr recordingmode vector
attr source powerGenerationChanged
attr title "Power generation"
attr unit W
vector 214 WSN_EnergyEfficient.sensorNode4.energyStorage residualEnergyCapacity:vector ETV
attr interpolationmode linear
attr recordingmode vector
attr source residualEnergyCapacityChanged
attr title "Residual energy capacity"
attr unit J
vector 215 WSN_EnergyEfficient.sensorNode4.energyGenerator powerGeneration:vector ETV
attr interpolationmode sample-hold
attr recordingmode vector
attr source powerGenerationChanged
attr title "Power generation"
attr unit W
vector 216 WSN_EnergyEfficient.sensorNode4.lo[0].lo rcvdPkFromHl:vector(packetBytes) ETV
attr interpolationmode none
attr recordingmode vector(packetBytes)
attr source packetReceivedFromUpper
attr title "packets received from higher layer, packetBytes"
vector 217 WSN_EnergyEfficient.sensorNode4.lo[0].lo passedUpPk:vector(packetBytes) ETV
attr interpolationmode none
attr recordingmode vector(packetBytes)
attr source packetSentToUpper
attr title "packets passed to higher layer, packetBytes"
vector 218 WSN_EnergyEfficient.sensorNode4.lo[0] packetDropInterfaceDown:vector(packetBytes) ETV
attr interpolationmode none
attr recordingmode vector(packetBytes)
attr source packetDropReasonIsInterfaceDown(packetDropped)
attr title "packet drops: interface down, packetBytes"
vector 219 WSN_EnergyEfficient.sensorNode4.lo[0] packetDropNoCarrier:vector(packetBytes) ETV
attr interpolationmode none
attr recordingmode vector(packetBytes)
attr source packetDropReasonIsNoCarrier(packetDropped)
attr title "packet drops: no carrier, packetBytes"
vector 220 WSN_EnergyEfficient.sensorNode4.wlan[0].queue queueLength:vector ETV
attr autoWarmupFilter false
attr interpolationmode sample-hold
attr recordingmode vector
attr source "warmup(atomic(constant0(packetPushEnded) + count(packetPushStarted) - count(packetPulled) - count(packetRemoved) - count(packetDropped)))"
attr title "queue length"
attr unit pk
vector 221 WSN_EnergyEfficient.sensorNode4.wlan[0].queue queueBitLength:vector ETV
attr autoWarmupFilter false
attr interpolationmode sample-hold
attr recordingmode vector
attr source "warmup(atomic(constant0(packetPushEnded) + sum(packetLength(packetPushStarted)) - sum(packetLength(packetPulled)) - sum(packetLength(packetRemoved)) - sum(packetLength(packetDropped))))"
attr title "queue bit length"
attr unit b
vector 222 WSN_EnergyEfficient.sensorNode4.wlan[0].queue queueingTime:vector ETV
attr interpolationmode none
attr recordingmode vector
attr source queueingTime(packetPulled)
attr title "queueing times"
attr unit s
vector 223 WSN_EnergyEfficient.sensorNode4.wlan[0].queue incomingPacketLengths:vector ETV
attr interpolationmode none
attr recordingmode vector
attr source packetLength(packetPushStarted)
attr title "incoming packet lengths"
attr unit b
vector 224 WSN_EnergyEfficient.sensorNode4.wlan[0].queue incomingDataRate:vector ETV
attr interpolationmode linear
attr recordingmode vector
attr source throughput(packetPushStarted)
attr title "incoming datarate"
attr unit bps
vector 225 WSN_EnergyEfficient.sensorNode4.wlan[0].queue outgoingPacketLengths:vector ETV
attr interpolationmode none
attr recordingmode vector
attr source packetLength(packetPulled)
attr title "outgoing packet lengths"
attr unit b
vector 226 WSN_EnergyEfficient.sensorNode4.wlan[0].queue outgoingDataRate:vector ETV
attr interpolationmode linear
attr recordingmode vector
attr source throughput(packetPulled)
attr title "outgoing datarate"
attr unit bps
vector 227 WSN_EnergyEfficient.sensorNode4.wlan[0].queue droppedPacketLengthsQueueOverflow:vector ETV
attr interpolationmode none
attr recordingmode vector
attr source packetLength(packetDropReasonIsQueueOverflow(packetDropped))
attr title "dropped packet lengths: queue overflow"
attr unit b
vector 228 WSN_EnergyEfficient.sensorNode4.wlan[0].queue flowQueueingTime:vector ETV
attr interpolationmode none
attr recordingmode vector
attr source queueingTime(demuxFlow(packetPulled))
attr title "flow queueing times"
attr unit s
vector 229 WSN_EnergyEfficient.sensorNode4.wlan[0].queue flowIncomingDataRate:vector ETV
attr interpolationmode linear
attr recordingmode vector
attr source throughput(flowPacketLength(demuxFlow(packetPushStarted)))
attr title "flow specific incoming data rate"
attr unit bps
vector 230 WSN_EnergyEfficient.sensorNode4.wlan[0].queue flowOutgoingDataRate:vector ETV
attr interpolationmode linear
attr recordingmode vector
attr source throughput(flowPacketLength(demuxFlow(packetPulled)))
attr title "flow specific outgoing data rate"
attr unit bps
vector 231 WSN_EnergyEfficient.sensorNode4.wlan[0].mac packetDropNotAddressToUs:vector(packetBytes) ETV
attr interpolationmode none
attr recordingmode vector(packetBytes)
attr source packetDropReasonIsNotAddressedToUs(packetDropped)
attr title "packet drop: not addressed to us, packetBytes"
vector 232 WSN_EnergyEfficient.sensorNode4.wlan[0].mac packetDropIncorrectlyReceived:vector(packetBytes) ETV
attr interpolationmode none
attr recordingmode vector(packetBytes)
attr source packetDropReasonIsIncorrectlyReceived(packetDropped)
attr title "packet drop: incorrectly received, packetBytes"
vector 233 WSN_EnergyEfficient.sensorNode4.wlan[0].mac packetDropQueueOverflow:vector(packetBytes) ETV
attr interpolationmode none
attr recordingmode vector(packetBytes)
attr source packetDropReasonIsQueueOverflow(packetDropped)
attr title "packet drop: queue overflow, packetBytes"
vector 234 WSN_EnergyEfficient.sensorNode4.wlan[0].mac packetDropRetryLimitReached:vector(packetBytes) ETV
attr interpolationmode none
attr recordingmode vector(packetBytes)
attr source packetDropReasonIsRetryLimitReached(packetDropped)
attr title "packet drop: retry limit reached, packetBytes"
vector 235 WSN_EnergyEfficient.sensorNode4.wlan[0].mac packetDropBackoffLimitReached:vector(packetBytes) ETV
attr interpolationmode none
attr recordingmode vector(packetBytes)
attr source packetDropReasonIsCongestion(packetDropped)
attr title "packet drop: backoff limit reached, packetBytes"
vector 236 WSN_EnergyEfficient.sensorNode4.wlan[0].radio.energyConsumer powerConsumption:vector ETV
attr interpolationmode sample-hold
attr recordingmode vector
attr source powerConsumptionChanged
attr title "Power consumption"
attr unit W
vector 237 WSN_EnergyEfficient.sensorNode4.wlan[0].radio radioMode:vector ETV
attr interpolationmode sample-hold
attr recordingmode vector
attr source radioModeChanged
attr title "Radio mode"
vector 238 WSN_EnergyEfficient.sensorNode4.wlan[0].radio receptionState:vector ETV
attr interpolationmode sample-hold
attr recordingmode vector
attr source receptionStateChanged
attr title "Radio reception state"
vector 239 WSN_EnergyEfficient.sensorNode4.wlan[0].radio transmissionState:vector ETV
attr interpolationmode sample-hold
attr recordingmode vector
attr source transmissionStateChanged
attr title "Radio transmission state"
vector 240 WSN_EnergyEfficient.sensorNode4.wlan[0] packetDropInterfaceDown:vector(packetBytes) ETV
attr interpolationmode none
attr recordingmode vector(packetBytes)
attr source packetDropReasonIsInterfaceDown(packetDropped)
attr title "packet drops: interface down, packetBytes"
vector 241 WSN_EnergyEfficient.sensorNode4.wlan[0] packetDropNoCarrier:vector(packetBytes) ETV
attr interpolationmode none
attr recordingmode vector(packetBytes)
attr source packetDropReasonIsNoCarrier(packetDropped)
attr title "packet drops: no carrier, packetBytes"
vector 242 WSN_EnergyEfficient.sensorNode4.ipv4.ip packetDropAddressResolutionFailed:vector(packetBytes) ETV
attr interpolationmode none
attr recordingmode vector(packetBytes)
attr source packetDropReasonIsAddressResolutionFailed(packetDropped)
attr title "packet drop: address resolution failed, packetBytes"
vector 243 WSN_EnergyEfficient.sensorNode4.ipv4.ip packetDropHopLimitReached:vector(packetBytes) ETV
attr interpolationmode none
attr recordingmode vector(packetBytes)
attr source packetDropReasonIsHopLimitReached(packetDropped)
attr title "packet drop: hop limit reached, packetBytes"
vector 244 WSN_EnergyEfficient.sensorNode4.ipv4.ip packetDropForwardingDisabled:vector(packetBytes) ETV
attr interpolationmode none
attr recordingmode vector(packetBytes)
attr source packetDropReasonIsForwardingDisabled(packetDropped)
attr title "packet drop: forwarding disabled, packetBytes"
vector 245 WSN_EnergyEfficient.sensorNode4.ipv4.ip packetDropNoInterfaceFound:vector(packetBytes) ETV
attr interpolationmode none
attr recordingmode vector(packetBytes)
attr source packetDropReasonIsNoInterfaceFound(packetDropped)
attr title "packet drop: no interface found, packetBytes"
vector 246 WSN_EnergyEfficient.sensorNode4.ipv4.ip packetDropNoRouteFound:vector(packetBytes) ETV
attr interpolationmode none
attr recordingmode vector(packetBytes)
attr source packetDropReasonIsNoRouteFound(packetDropped)
attr title "packet drop: no route found, packetBytes"
vector 247 WSN_EnergyEfficient.sensorNode4.ipv4.ip packetDropUndefined:vector(packetBytes) ETV
attr interpolationmode none
attr recordingmode vector(packetBytes)
attr source packetDropReasonIsUndefined(packetDropped)
attr title "packet drop: undefined, packetBytes"
vector 248 WSN_EnergyEfficient.sensorNode4.ipv4.arp arpRequestSent:vector(packetBytes) ETV
attr recordingmode vector(packetBytes)
attr source arpRequestSent
attr title "ARP request sent, packetBytes"
vector 249 WSN_EnergyEfficient.sensorNode4.ipv4.arp arpReplySent:vector(packetBytes) ETV
attr recordingmode vector(packetBytes)
attr source arpReplySent
attr title "ARP replies sent, packetBytes"
vector 250 WSN_EnergyEfficient.sensorNode4.udp packetSent:vector(packetBytes) ETV
attr interpolationmode none
attr recordingmode vector(packetBytes)
attr source packetSent
attr title "packets sent, packetBytes"
vector 251 WSN_EnergyEfficient.sensorNode4.udp packetReceived:vector(packetBytes) ETV
attr interpolationmode none
attr recordingmode vector(packetBytes)
attr source packetReceived
attr title "packets received, packetBytes"
vector 252 WSN_EnergyEfficient.sensorNode4.udp passedUpPk:vector(count) ETV
attr interpolationmode none
attr recordingmode vector(count)
attr source packetSentToUpper
attr title "packets passed up, count"
vector 253 WSN_EnergyEfficient.sensorNode4.udp droppedPkWrongPort:vector(count) ETV
attr interpolationmode none
attr recordingmode vector(count)
attr source packetDropReasonIsNoPortFound(packetDropped)
attr title "packets dropped (wrong port), count"
vector 254 WSN_EnergyEfficient.sensorNode4.udp droppedPkBadChecksum:vector(count) ETV
attr interpolationmode none
attr recordingmode vector(count)
attr source packetDropReasonIsIncorrectlyReceived(packetDropped)
attr title "packets dropped (checksum error), count"
vector 255 WSN_EnergyEfficient.sensorNode4.app[0] rtt:vector ETV
attr interpolationmode none
attr recordingmode vector
attr title "ping round-trip time"
attr unit s
vector 256 WSN_EnergyEfficient.sensorNode4.app[0] numLost:vector ETV
attr interpolationmode none
attr recordingmode vector
attr title "pings lost"
vector 257 WSN_EnergyEfficient.sensorNode4.app[0] numOutOfOrderArrivals:vector ETV
attr interpolationmode none
attr recordingmode vector
attr title "ping out-of-order arrivals"
vector 258 WSN_EnergyEfficient.sensorNode4.app[0] pingTxSeq:vector ETV
attr interpolationmode none
attr recordingmode vector
attr title "ping tx seq"
vector 259 WSN_EnergyEfficient.sensorNode4.app[0] pingRxSeq:vector ETV
attr interpolationmode none
attr recordingmode vector
attr title "ping rx seq"
vector 260 WSN_EnergyEfficient.sensorNode4.app[1] packetReceived:vector(packetBytes) ETV
attr interpolationmode none
attr recordingmode vector(packetBytes)
attr source packetReceived
attr title "packets received, packetBytes"
vector 261 WSN_EnergyEfficient.sensorNode4.app[1] throughput:vector ETV
attr recordingmode vector
attr source throughput(packetReceived)
attr title throughput
attr unit bps
vector 262 WSN_EnergyEfficient.sensorNode4.app[1] packetSent:vector(packetBytes) ETV
attr interpolationmode none
attr recordingmode vector(packetBytes)
attr source packetSent
attr title "packets sent, packetBytes"
vector 263 WSN_EnergyEfficient.sensorNode4.app[1] rcvdPkLifetime:vector ETV
attr interpolationmode none
attr recordingmode vector
attr source dataAge(packetReceived)
attr title "received packet lifetime"
attr unit s
vector 264 WSN_EnergyEfficient.sensorNode4.app[1] rcvdPkSeqNo:vector ETV
attr interpolationmode none
attr recordingmode vector
attr source appPkSeqNo(packetReceived)
attr title "received packet sequence number"
vector 265 WSN_EnergyEfficient.sensorNode5.energyStorage powerConsumption:vector ETV
attr interpolationmode sample-hold
attr recordingmode vector
attr source powerConsumptionChanged
attr title "Power consumption"
attr unit W
vector 266 WSN_EnergyEfficient.sensorNode5.energyStorage powerGeneration:vector ETV
attr interpolationmode sample-hold
attr recordingmode vector
attr source powerGenerationChanged
attr title "Power generation"
attr unit W
vector 267 WSN_EnergyEfficient.sensorNode5.energyStorage residualEnergyCapacity:vector ETV
attr interpolationmode linear
attr recordingmode vector
attr source residualEnergyCapacityChanged
attr title "Residual energy capacity"
attr unit J
vector 268 WSN_EnergyEfficient.sensorNode5.energyGenerator powerGeneration:vector ETV
attr interpolationmode sample-hold
attr recordingmode vector
attr source powerGenerationChanged
attr title "Power generation"
attr unit W
vector 269 WSN_EnergyEfficient.sensorNode5.lo[0].lo rcvdPkFromHl:vector(packetBytes) ETV
attr interpolationmode none
attr recordingmode vector(packetBytes)
attr source packetReceivedFromUpper
attr title "packets received from higher layer, packetBytes"
vector 270 WSN_EnergyEfficient.sensorNode5.lo[0].lo passedUpPk:vector(packetBytes) ETV
attr interpolationmode none
attr recordingmode vector(packetBytes)
attr source packetSentToUpper
attr title "packets passed to higher layer, packetBytes"
vector 271 WSN_EnergyEfficient.sensorNode5.lo[0] packetDropInterfaceDown:vector(packetBytes) ETV
attr interpolationmode none
attr recordingmode vector(packetBytes)
attr source packetDropReasonIsInterfaceDown(packetDropped)
attr title "packet drops: interface down, packetBytes"
vector 272 WSN_EnergyEfficient.sensorNode5.lo[0] packetDropNoCarrier:vector(packetBytes) ETV
attr interpolationmode none
attr recordingmode vector(packetBytes)
attr source packetDropReasonIsNoCarrier(packetDropped)
attr title "packet drops: no carrier, packetBytes"
vector 273 WSN_EnergyEfficient.sensorNode5.wlan[0].queue queueLength:vector ETV
attr autoWarmupFilter false
attr interpolationmode sample-hold
attr recordingmode vector
attr source "warmup(atomic(constant0(packetPushEnded) + count(packetPushStarted) - count(packetPulled) - count(packetRemoved) - count(packetDropped)))"
attr title "queue length"
attr unit pk
vector 274 WSN_EnergyEfficient.sensorNode5.wlan[0].queue queueBitLength:vector ETV
attr autoWarmupFilter false
attr interpolationmode sample-hold
attr recordingmode vector
attr source "warmup(atomic(constant0(packetPushEnded) + sum(packetLength(packetPushStarted)) - sum(packetLength(packetPulled)) - sum(packetLength(packetRemoved)) - sum(packetLength(packetDropped))))"
attr title "queue bit length"
attr unit b
vector 275 WSN_EnergyEfficient.sensorNode5.wlan[0].queue queueingTime:vector ETV
attr interpolationmode none
attr recordingmode vector
attr source queueingTime(packetPulled)
attr title "queueing times"
attr unit s
vector 276 WSN_EnergyEfficient.sensorNode5.wlan[0].queue incomingPacketLengths:vector ETV
attr interpolationmode none
attr recordingmode vector
attr source packetLength(packetPushStarted)
attr title "incoming packet lengths"
attr unit b
vector 277 WSN_EnergyEfficient.sensorNode5.wlan[0].queue incomingDataRate:vector ETV
attr interpolationmode linear
attr recordingmode vector
attr source throughput(packetPushStarted)
attr title "incoming datarate"
attr unit bps
vector 278 WSN_EnergyEfficient.sensorNode5.wlan[0].queue outgoingPacketLengths:vector ETV
attr interpolationmode none
attr recordingmode vector
attr source packetLength(packetPulled)
attr title "outgoing packet lengths"
attr unit b
vector 279 WSN_EnergyEfficient.sensorNode5.wlan[0].queue outgoingDataRate:vector ETV
attr interpolationmode linear
attr recordingmode vector
attr source throughput(packetPulled)
attr title "outgoing datarate"
attr unit bps
vector 280 WSN_EnergyEfficient.sensorNode5.wlan[0].queue droppedPacketLengthsQueueOverflow:vector ETV
attr interpolationmode none
attr recordingmode vector
attr source packetLength(packetDropReasonIsQueueOverflow(packetDropped))
attr title "dropped packet lengths: queue overflow"
attr unit b
vector 281 WSN_EnergyEfficient.sensorNode5.wlan[0].queue flowQueueingTime:vector ETV
attr interpolationmode none
attr recordingmode vector
attr source queueingTime(demuxFlow(packetPulled))
attr title "flow queueing times"
attr unit s
vector 282 WSN_EnergyEfficient.sensorNode5.wlan[0].queue flowIncomingDataRate:vector ETV
attr interpolationmode linear
attr recordingmode vector
attr source throughput(flowPacketLength(demuxFlow(packetPushStarted)))
attr title "flow specific incoming data rate"
attr unit bps
vector 283 WSN_EnergyEfficient.sensorNode5.wlan[0].queue flowOutgoingDataRate:vector ETV
attr interpolationmode linear
attr recordingmode vector
attr source throughput(flowPacketLength(demuxFlow(packetPulled)))
attr title "flow specific outgoing data rate"
attr unit bps
vector 284 WSN_EnergyEfficient.sensorNode5.wlan[0].mac packetDropNotAddressToUs:vector(packetBytes) ETV
attr interpolationmode none
attr recordingmode vector(packetBytes)
attr source packetDropReasonIsNotAddressedToUs(packetDropped)
attr title "packet drop: not addressed to us, packetBytes"
vector 285 WSN_EnergyEfficient.sensorNode5.wlan[0].mac packetDropIncorrectlyReceived:vector(packetBytes) ETV
attr interpolationmode none
attr recordingmode vector(packetBytes)
attr source packetDropReasonIsIncorrectlyReceived(packetDropped)
attr title "packet drop: incorrectly received, packetBytes"
vector 286 WSN_EnergyEfficient.sensorNode5.wlan[0].mac packetDropQueueOverflow:vector(packetBytes) ETV
attr interpolationmode none
attr recordingmode vector(packetBytes)
attr source packetDropReasonIsQueueOverflow(packetDropped)
attr title "packet drop: queue overflow, packetBytes"
vector 287 WSN_EnergyEfficient.sensorNode5.wlan[0].mac packetDropRetryLimitReached:vector(packetBytes) ETV
attr interpolationmode none
attr recordingmode vector(packetBytes)
attr source packetDropReasonIsRetryLimitReached(packetDropped)
attr title "packet drop: retry limit reached, packetBytes"
vector 288 WSN_EnergyEfficient.sensorNode5.wlan[0].mac packetDropBackoffLimitReached:vector(packetBytes) ETV
attr interpolationmode none
attr recordingmode vector(packetBytes)
attr source packetDropReasonIsCongestion(packetDropped)
attr title "packet drop: backoff limit reached, packetBytes"
vector 289 WSN_EnergyEfficient.sensorNode5.wlan[0].radio.energyConsumer powerConsumption:vector ETV
attr interpolationmode sample-hold
attr recordingmode vector
attr source powerConsumptionChanged
attr title "Power consumption"
attr unit W
vector 290 WSN_EnergyEfficient.sensorNode5.wlan[0].radio radioMode:vector ETV
attr interpolationmode sample-hold
attr recordingmode vector
attr source radioModeChanged
attr title "Radio mode"
vector 291 WSN_EnergyEfficient.sensorNode5.wlan[0].radio receptionState:vector ETV
attr interpolationmode sample-hold
attr recordingmode vector
attr source receptionStateChanged
attr title "Radio reception state"
vector 292 WSN_EnergyEfficient.sensorNode5.wlan[0].radio transmissionState:vector ETV
attr interpolationmode sample-hold
attr recordingmode vector
attr source transmissionStateChanged
attr title "Radio transmission state"
vector 293 WSN_EnergyEfficient.sensorNode5.wlan[0] packetDropInterfaceDown:vector(packetBytes) ETV
attr interpolationmode none
attr recordingmode vector(packetBytes)
attr source packetDropReasonIsInterfaceDown(packetDropped)
attr title "packet drops: interface down, packetBytes"
vector 294 WSN_EnergyEfficient.sensorNode5.wlan[0] packetDropNoCarrier:vector(packetBytes) ETV
attr interpolationmode none
attr recordingmode vector(packetBytes)
attr source packetDropReasonIsNoCarrier(packetDropped)
attr title "packet drops: no carrier, packetBytes"
vector 295 WSN_EnergyEfficient.sensorNode5.ipv4.ip packetDropAddressResolutionFailed:vector(packetBytes) ETV
attr interpolationmode none
attr recordingmode vector(packetBytes)
attr source packetDropReasonIsAddressResolutionFailed(packetDropped)
attr title "packet drop: address resolution failed, packetBytes"
vector 296 WSN_EnergyEfficient.sensorNode5.ipv4.ip packetDropHopLimitReached:vector(packetBytes) ETV
attr interpolationmode none
attr recordingmode vector(packetBytes)
attr source packetDropReasonIsHopLimitReached(packetDropped)
attr title "packet drop: hop limit reached, packetBytes"
vector 297 WSN_EnergyEfficient.sensorNode5.ipv4.ip packetDropForwardingDisabled:vector(packetBytes) ETV
attr interpolationmode none
attr recordingmode vector(packetBytes)
attr source packetDropReasonIsForwardingDisabled(packetDropped)
attr title "packet drop: forwarding disabled, packetBytes"
vector 298 WSN_EnergyEfficient.sensorNode5.ipv4.ip packetDropNoInterfaceFound:vector(packetBytes) ETV
attr interpolationmode none
attr recordingmode vector(packetBytes)
attr source packetDropReasonIsNoInterfaceFound(packetDropped)
attr title "packet drop: no interface found, packetBytes"
vector 299 WSN_EnergyEfficient.sensorNode5.ipv4.ip packetDropNoRouteFound:vector(packetBytes) ETV
attr interpolationmode none
attr recordingmode vector(packetBytes)
attr source packetDropReasonIsNoRouteFound(packetDropped)
attr title "packet drop: no route found, packetBytes"
vector 300 WSN_EnergyEfficient.sensorNode5.ipv4.ip packetDropUndefined:vector(packetBytes) ETV
attr interpolationmode none
attr recordingmode vector(packetBytes)
attr source packetDropReasonIsUndefined(packetDropped)
attr title "packet drop: undefined, packetBytes"
vector 301 WSN_EnergyEfficient.sensorNode5.ipv4.arp arpRequestSent:vector(packetBytes) ETV
attr recordingmode vector(packetBytes)
attr source arpRequestSent
attr title "ARP request sent, packetBytes"
vector 302 WSN_EnergyEfficient.sensorNode5.ipv4.arp arpReplySent:vector(packetBytes) ETV
attr recordingmode vector(packetBytes)
attr source arpReplySent
attr title "ARP replies sent, packetBytes"
vector 303 WSN_EnergyEfficient.sensorNode5.udp packetSent:vector(packetBytes) ETV
attr interpolationmode none
attr recordingmode vector(packetBytes)
attr source packetSent
attr title "packets sent, packetBytes"
vector 304 WSN_EnergyEfficient.sensorNode5.udp packetReceived:vector(packetBytes) ETV
attr interpolationmode none
attr recordingmode vector(packetBytes)
attr source packetReceived
attr title "packets received, packetBytes"
vector 305 WSN_EnergyEfficient.sensorNode5.udp passedUpPk:vector(count) ETV
attr interpolationmode none
attr recordingmode vector(count)
attr source packetSentToUpper
attr title "packets passed up, count"
vector 306 WSN_EnergyEfficient.sensorNode5.udp droppedPkWrongPort:vector(count) ETV
attr interpolationmode none
attr recordingmode vector(count)
attr source packetDropReasonIsNoPortFound(packetDropped)
attr title "packets dropped (wrong port), count"
vector 307 WSN_EnergyEfficient.sensorNode5.udp droppedPkBadChecksum:vector(count) ETV
attr interpolationmode none
attr recordingmode vector(count)
attr source packetDropReasonIsIncorrectlyReceived(packetDropped)
attr title "packets dropped (checksum error), count"
[...]
691	28	1.170390085724	0.1499998153574
744	28	1.170390085724	0.15
2	29	1.170526453632	0.15
2	29	1.171764182192	0.15
55	29	1.170526453632	0.14999903535623
55	29	1.171764182192	0.14999037125631
108	29	1.170526453632	0.15
108	29	1.171764182192	0.15
161	29	1.170526453632	0.15
161	29	1.171764182192	0.15
214	29	1.170526453632	0.15
214	29	1.171764182192	0.15
267	29	1.170526453632	0.15
267	29	1.171764182192	0.15
320	29	1.170526453632	0.15
320	29	1.171764182192	0.15
373	29	1.170526453632	0.15
373	29	1.171764182192	0.15
426	29	1.170526453632	0.15
426	29	1.171764182192	0.15
479	29	1.170526453632	0.15
479	29	1.171764182192	0.15
532	29	1.170526453632	0.14999903608557
532	29	1.171764182192	0.14999037198565
585	29	1.170526453632	0.14999903811304
585	29	1.171764182192	0.14999037401312
638	29	1.170526453632	0.14999903528342
638	29	1.171764182192	0.1499903711835
691	29	1.170526453632	0.14998658767032
691	29	1.171764182192	0.149866528
744	29	1.170526453632	0.15
744	29	1.171764182192	0.15
2	30	1.171764636978	0.15
55	30	1.171764636978	0.14999036807281
108	30	1.171764636978	0.15
161	30	1.171764636978	0.15
214	30	1.171764636978	0.15
267	30	1.171764636978	0.15
320	30	1.171764636978	0.15
373	30	1.171764636978	0.15
426	30	1.171764636978	0.15
479	30	1.171764636978	0.15
532	30	1.171764636978	0.14999036880215
585	30	1.171764636978	0.14999037082962
638	30	1.171764636978	0.149990368
689	30	1.171764182192	0.002
689	30	1.171764182192	0
689	30	1.171764182192	0.002
689	30	1.171764182192	0.002
689	30	1.171764182192	0.002
691	30	1.171764636978	0.14986652845479
713	30	1.171764182192	0.002
713	30	1.171764182192	0
713	30	1.171764182192	0.002
713	30	1.171764182192	0.002
713	30	1.171764182192	0.002
714	30	1.171764182192	2
715	30	1.171764182192	1
716	30	1.171764182192	1
716	30	1.171764182192	0
744	30	1.171764636978	0.15
636	31	1.171764636978	0.002
660	31	1.171764636978	0.002
662	31	1.171764636978	1
2	33	1.171764647379	0.15
55	33	1.171764647379	0.149990368
108	33	1.171764647379	0.15
161	33	1.171764647379	0.15
214	33	1.171764647379	0.15
267	33	1.171764647379	0.15
320	33	1.171764647379	0.15
373	33	1.171764647379	0.15
426	33	1.171764647379	0.15
479	33	1.171764647379	0.15
532	33	1.171764647379	0.14999036872934
585	33	1.171764647379	0.14999037075681
638	33	1.171764647379	0.1499903680104
691	33	1.171764647379	0.14986652846519
744	33	1.171764647379	0.15
53	34	1.171764647379	0.002
77	34	1.171764647379	0.002
79	34	1.171764647379	1
858	37	1.171764687495	1
2	39	1.171764720667	0.15
55	39	1.171764720667	0.14999036807329
108	39	1.171764720667	0.15
161	39	1.171764720667	0.15
214	39	1.171764720667	0.15
267	39	1.171764720667	0.15
320	39	1.171764720667	0.15
373	39	1.171764720667	0.15
426	39	1.171764720667	0.15
479	39	1.171764720667	0.15
532	39	1.171764720667	0.14999036821633
585	39	1.171764720667	0.14999037024379
638	39	1.171764720667	0.14999036808369
691	39	1.171764720667	0.14986652853848
744	39	1.171764720667	0.15
530	40	1.171764751571	0.002
532	40	1.171764751571	0.149990368
554	40	1.171764751571	0.002
556	40	1.171764751571	1
2	42	1.171764798158	0.15
2	42	1.171764863857	0.15
2	42	1.171764916151	0.15
2	42	1.171764940144	0.15
2	42	1.171764968057	0.15
2	42	1.171764991361	0.15
2	42	1.171765015381	0.15
2	42	1.171765039279	0.15
55	42	1.171764798158	0.14999036815078
55	42	1.171764863857	0.14999036821648
55	42	1.171764916151	0.14999036826877
55	42	1.171764940144	0.14999036829276
55	42	1.171764968057	0.14999036832068
55	42	1.171764991361	0.14999036834398
55	42	1.171765015381	0.149990368368
55	42	1.171765039279	0.1499903683919
108	42	1.171764798158	0.15
108	42	1.171764863857	0.15
108	42	1.171764916151	0.15
108	42	1.171764940144	0.15
108	42	1.171764968057	0.15
108	42	1.171764991361	0.15
108	42	1.171765015381	0.15
108	42	1.171765039279	0.15
161	42	1.171764798158	0.15
161	42	1.171764863857	0.15
161	42	1.171764916151	0.15
161	42	1.171764940144	0.15
161	42	1.171764968057	0.15
161	42	1.171764991361	0.15
161	42	1.171765015381	0.15
161	42	1.171765039279	0.15
214	42	1.171764798158	0.15
214	42	1.171764863857	0.15
214	42	1.171764916151	0.15
214	42	1.171764940144	0.15
214	42	1.171764968057	0.15
214	42	1.171764991361	0.15
214	42	1.171765015381	0.15
214	42	1.171765039279	0.15
267	42	1.171764798158	0.15
267	42	1.171764863857	0.15
267	42	1.171764916151	0.15
267	42	1.171764940144	0.15
267	42	1.171764968057	0.15
267	42	1.171764991361	0.15
267	42	1.171765015381	0.15
267	42	1.171765039279	0.15
320	42	1.171764798158	0.15
320	42	1.171764863857	0.15
320	42	1.171764916151	0.15
320	42	1.171764940144	0.15
320	42	1.171764968057	0.15
320	42	1.171764991361	0.15
320	42	1.171765015381	0.15
320	42	1.171765039279	0.15
373	42	1.171764798158	0.15
373	42	1.171764863857	0.15
373	42	1.171764916151	0.15
373	42	1.171764940144	0.15
373	42	1.171764968057	0.15
373	42	1.171764991361	0.15
373	42	1.171765015381	0.15
373	42	1.171765039279	0.15
426	42	1.171764798158	0.15
426	42	1.171764863857	0.15
426	42	1.171764916151	0.15
426	42	1.171764940144	0.15
426	42	1.171764968057	0.15
426	42	1.171764991361	0.15
426	42	1.171765015381	0.15
426	42	1.171765039279	0.15
479	42	1.171764798158	0.15
479	42	1.171764863857	0.15
479	42	1.171764916151	0.15
479	42	1.171764940144	0.15
479	42	1.171764968057	0.15
479	42	1.171764991361	0.15
479	42	1.171765015381	0.15
479	42	1.171765039279	0.15
532	42	1.171764798158	0.14999036804659
532	42	1.171764863857	0.14999036811229
532	42	1.171764916151	0.14999036816458
532	42	1.171764940144	0.14999036818857
532	42	1.171764968057	0.14999036821649
532	42	1.171764991361	0.14999036823979
532	42	1.171765015381	0.14999036826381
532	42	1.171765039279	0.14999036828771
585	42	1.171764798158	0.14999036970136
585	42	1.171764863857	0.14999036924146
585	42	1.171764916151	0.14999036887541
585	42	1.171764940144	0.14999036870745
585	42	1.171764968057	0.14999036851206
585	42	1.171764991361	0.14999036834894
585	42	1.171765015381	0.1499903681808
585	42	1.171765039279	0.14999036801351
638	42	1.171764798158	0.14999036816118
638	42	1.171764863857	0.14999036822688
638	42	1.171764916151	0.14999036827917
638	42	1.171764940144	0.14999036830317
638	42	1.171764968057	0.14999036833108
638	42	1.171764991361	0.14999036835438
638	42	1.171765015381	0.1499903683784
638	42	1.171765039279	0.1499903684023
691	42	1.171764798158	0.14986652861597
691	42	1.171764863857	0.14986652868167
691	42	1.171764916151	0.14986652873396
691	42	1.171764940144	0.14986652875795
691	42	1.171764968057	0.14986652878587
691	42	1.171764991361	0.14986652880917
691	42	1.171765015381	0.14986652883319
691	42	1.171765039279	0.14986652885709
744	42	1.171764798158	0.15
744	42	1.171764863857	0.15
744	42	1.171764916151	0.15
744	42	1.171764940144	0.15
744	42	1.171764968057	0.15
744	42	1.171764991361	0.15
744	42	1.171765015381	0.15
744	42	1.171765039279	0.15
583	43	1.171765041209	0.002
585	43	1.171765041209	0.149990368
607	43	1.171765041209	0.002
609	43	1.171765041209	1
2	45	1.171765098553	0.15
55	45	1.171765098553	0.14999036845117
108	45	1.171765098553	0.15
161	45	1.171765098553	0.15
214	45	1.171765098553	0.15
267	45	1.171765098553	0.15
320	45	1.171765098553	0.15
373	45	1.171765098553	0.15
426	45	1.171765098553	0.15
479	45	1.171765098553	0.15
532	45	1.171765098553	0.14999036834698
585	45	1.171765098553	0.14999036805734
638	45	1.171765098553	0.14999036846157
691	45	1.171765098553	0.14986652891636
744	45	1.171765098553	0.15
2	46	1.171765225629	0.15
55	46	1.171765225629	0.14999036857825
108	46	1.171765225629	0.15
161	46	1.171765225629	0.15
214	46	1.171765225629	0.15
267	46	1.171765225629	0.15
320	46	1.171765225629	0.15
373	46	1.171765225629	0.15
426	46	1.171765225629	0.15
479	46	1.171765225629	0.15
532	46	1.171765225629	0.14999036847406
585	46	1.171765225629	0.14999036818442
638	46	1.171765225629	0.14999036858865
691	46	1.171765225629	0.14986652904344
744	46	1.171765225629	0.15
2	47	1.171765329075	0.15
55	47	1.171765329075	0.1499903686817
108	47	1.171765329075	0.15
161	47	1.171765329075	0.15
214	47	1.171765329075	0.15
267	47	1.171765329075	0.15
320	47	1.171765329075	0.15
373	47	1.171765329075	0.15
426	47	1.171765329075	0.15
479	47	1.171765329075	0.15
532	47	1.171765329075	0.1499903685775
585	47	1.171765329075	0.14999036828787
638	47	1.171765329075	0.1499903686921
691	47	1.171765329075	0.14986652914688
744	47	1.171765329075	0.15
2	48	1.171765425353	0.15
55	48	1.171765425353	0.14999036877797
108	48	1.171765425353	0.15
161	48	1.171765425353	0.15
214	48	1.171765425353	0.15
267	48	1.171765425353	0.15
320	48	1.171765425353	0.15
373	48	1.171765425353	0.15
426	48	1.171765425353	0.15
479	48	1.171765425353	0.15
532	48	1.171765425353	0.14999036867378
585	48	1.171765425353	0.14999036838414
638	48	1.171765425353	0.14999036878837
691	48	1.171765425353	0.14986652924316
744	48	1.171765425353	0.15
2	49	1.171765433773	0.15
55	49	1.171765433773	0.14999036878639
108	49	1.171765433773	0.15
161	49	1.171765433773	0.15
214	49	1.171765433773	0.15
267	49	1.171765433773	0.15
320	49	1.171765433773	0.15
373	49	1.171765433773	0.15
426	49	1.171765433773	0.15
479	49	1.171765433773	0.15
532	49	1.171765433773	0.1499903686822
585	49	1.171765433773	0.14999036839256
638	49	1.171765433773	0.14999036879679
691	49	1.171765433773	0.14986652925158
744	49	1.171765433773	0.15
2	50	1.17176553638	0.15
55	50	1.17176553638	0.149990368889
108	50	1.17176553638	0.15
161	50	1.17176553638	0.15
214	50	1.17176553638	0.15
267	50	1.17176553638	0.15
320	50	1.17176553638	0.15
373	50	1.17176553638	0.15
426	50	1.17176553638	0.15
479	50	1.17176553638	0.15
532	50	1.17176553638	0.14999036878481
585	50	1.17176553638	0.14999036849517
638	50	1.17176553638	0.1499903688994
691	50	1.17176553638	0.14986652935419
744	50	1.17176553638	0.15
2	51	1.171765561668	0.15
55	51	1.171765561668	0.14999036891429
108	51	1.171765561668	0.15
161	51	1.171765561668	0.15
214	51	1.171765561668	0.15
267	51	1.171765561668	0.15
320	51	1.171765561668	0.15
373	51	1.171765561668	0.15
426	51	1.171765561668	0.15
479	51	1.171765561668	0.15
532	51	1.171765561668	0.1499903688101
585	51	1.171765561668	0.14999036852046
638	51	1.171765561668	0.14999036892469
691	51	1.171765561668	0.14986652937948
744	51	1.171765561668	0.15
2	52	1.171765721662	0.15
55	52	1.171765721662	0.14999036907428
108	52	1.171765721662	0.15
161	52	1.171765721662	0.15
214	52	1.171765721662	0.15
267	52	1.171765721662	0.15
320	52	1.171765721662	0.15
373	52	1.171765721662	0.15
426	52	1.171765721662	0.15
479	52	1.171765721662	0.15
532	52	1.171765721662	0.14999036897009
585	52	1.171765721662	0.14999036868045
638	52	1.171765721662	0.14999036908468
691	52	1.171765721662	0.14986652953947
744	52	1.171765721662	0.15
2	53	1.17176586966	0.15
55	53	1.17176586966	0.14999036922228
108	53	1.17176586966	0.15
161	53	1.17176586966	0.15
214	53	1.17176586966	0.15
267	53	1.17176586966	0.15
320	53	1.17176586966	0.15
373	53	1.17176586966	0.15
426	53	1.17176586966	0.15
479	53	1.17176586966	0.15
532	53	1.17176586966	0.14999036911809
585	53	1.17176586966	0.14999036882845
638	53	1.17176586966	0.14999036923268
691	53	1.17176586966	0.14986652968747
744	53	1.17176586966	0.15
2	54	1.171765949027	0.15
55	54	1.171765949027	0.14999036930165
108	54	1.171765949027	0.15
161	54	1.171765949027	0.15
214	54	1.171765949027	0.15
267	54	1.171765949027	0.15
320	54	1.171765949027	0.15
373	54	1.171765949027	0.15
426	54	1.171765949027	0.15
479	54	1.171765949027	0.15
532	54	1.171765949027	0.14999036919746
585	54	1.171765949027	0.14999036890782
638	54	1.171765949027	0.14999036931205
691	54	1.171765949027	0.14986652976684
744	54	1.171765949027	0.15
2	55	1.171766085724	0.15
55	55	1.171766085724	0.14999036943834
108	55	1.171766085724	0.15
161	55	1.171766085724	0.15
214	55	1.171766085724	0.15
267	55	1.171766085724	0.15
320	55	1.171766085724	0.15
373	55	1.171766085724	0.15
426	55	1.171766085724	0.15
479	55	1.171766085724	0.15
532	55	1.171766085724	0.14999036933415
585	55	1.171766085724	0.14999036904451
638	55	1.171766085724	0.14999036944875
691	55	1.171766085724	0.14986652990353
744	55	1.171766085724	0.15
12	56	0.1	0
12	56	0.2	0
12	56	0.3	0
12	56	0.4	0
12	56	0.5	0
12	56	0.6	0
12	56	0.7	0
12	56	0.8	0
12	56	0.9	0
12	56	1	0
12	56	1.1	0
12	56	1.171766085724	0
14	56	0.1	0
14	56	0.2	0
14	56	0.3	0
14	56	0.4	0
14	56	0.5	0
14	56	0.6	0
14	56	0.7	0
14	56	0.8	0
14	56	0.9	0
14	56	1	0
14	56	1.1	0
14	56	1.171766085724	0
49	56	0.1	0
49	56	0.2	0
49	56	0.3	0
49	56	0.4	0
49	56	0.5	0
49	56	0.6	0
49	56	0.7	0
49	56	0.8	0
49	56	0.9	0
49	56	1	0
49	56	1.1	0
49	56	1.171766085724	0
65	56	0.1	0
65	56	0.2	0
65	56	0.3	0
65	56	0.4	0
65	56	0.5	0
65	56	0.6	0
65	56	0.7	0
65	56	0.8	0
65	56	0.9	0
65	56	1	0
65	56	1.1	0
65	56	1.171766085724	0
67	56	0.1	0
67	56	0.2	0
67	56	0.3	0
67	56	0.4	0
67	56	0.5	0
67	56	0.6	0
67	56	0.7	0
67	56	0.8	0
67	56	0.9	0
67	56	1	0
67	56	1.1	0
67	56	1.171766085724	0
102	56	0.1	0
102	56	0.2	0
102	56	0.3	0
102	56	0.4	0
102	56	0.5	0
102	56	0.6	0
102	56	0.7	0
102	56	0.8	0
102	56	0.9	0
102	56	1	0
102	56	1.1	0
102	56	1.171766085724	0
118	56	0.1	0
118	56	0.2	0
118	56	0.3	0
118	56	0.4	0
118	56	0.5	0
118	56	0.6	0
118	56	0.7	0
118	56	0.8	0
118	56	0.9	0
118	56	1	0
118	56	1.1	0
118	56	1.171766085724	0
120	56	0.1	0
120	56	0.2	0
120	56	0.3	0
120	56	0.4	0
120	56	0.5	0
120	56	0.6	0
120	56	0.7	0
120	56	0.8	0
120	56	0.9	0
120	56	1	0
120	56	1.1	0
120	56	1.171766085724	0
155	56	0.1	0
155	56	0.2	0
155	56	0.3	0
155	56	0.4	0
155	56	0.5	0
155	56	0.6	0
155	56	0.7	0
155	56	0.8	0
155	56	0.9	0
155	56	1	0
155	56	1.1	0
155	56	1.171766085724	0
171	56	0.1	0
171	56	0.2	0
171	56	0.3	0
171	56	0.4	0
171	56	0.5	0
171	56	0.6	0
171	56	0.7	0
171	56	0.8	0
171	56	0.9	0
171	56	1	0
171	56	1.1	0
171	56	1.171766085724	0
173	56	0.1	0
173	56	0.2	0
173	56	0.3	0
173	56	0.4	0
173	56	0.5	0
173	56	0.6	0
173	56	0.7	0
173	56	0.8	0
173	56	0.9	0
173	56	1	0
173	56	1.1	0
173	56	1.171766085724	0
208	56	0.1	0
208	56	0.2	0
208	56	0.3	0
208	56	0.4	0
208	56	0.5	0
208	56	0.6	0
208	56	0.7	0
208	56	0.8	0
208	56	0.9	0
208	56	1	0
208	56	1.1	0
208	56	1.171766085724	0
224	56	0.1	0
224	56	0.2	0
224	56	0.3	0
224	56	0.4	0
224	56	0.5	0
224	56	0.6	0
224	56	0.7	0
224	56	0.8	0
224	56	0.9	0
224	56	1	0
224	56	1.1	0
224	56	1.171766085724	0
226	56	0.1	0
226	56	0.2	0
226	56	0.3	0
226	56	0.4	0
226	56	0.5	0
226	56	0.6	0
226	56	0.7	0
226	56	0.8	0
226	56	0.9	0
226	56	1	0
226	56	1.1	0
226	56	1.171766085724	0
261	56	0.1	0
261	56	0.2	0
261	56	0.3	0
261	56	0.4	0
261	56	0.5	0
261	56	0.6	0
261	56	0.7	0
261	56	0.8	0
261	56	0.9	0
261	56	1	0
261	56	1.1	0
261	56	1.171766085724	0
277	56	0.1	0
277	56	0.2	0
277	56	0.3	0
277	56	0.4	0
277	56	0.5	0
277	56	0.6	0
277	56	0.7	0
277	56	0.8	0
277	56	0.9	0
277	56	1	0
277	56	1.1	0
277	56	1.171766085724	0
279	56	0.1	0
279	56	0.2	0
279	56	0.3	0
279	56	0.4	0
279	56	0.5	0
279	56	0.6	0
279	56	0.7	0
279	56	0.8	0
279	56	0.9	0
279	56	1	0
279	56	1.1	0
279	56	1.171766085724	0
314	56	0.1	0
314	56	0.2	0
314	56	0.3	0
314	56	0.4	0
314	56	0.5	0
314	56	0.6	0
314	56	0.7	0
314	56	0.8	0
314	56	0.9	0
314	56	1	0
314	56	1.1	0
314	56	1.171766085724	0
330	56	0.1	0
330	56	0.2	0
330	56	0.3	0
330	56	0.4	0
330	56	0.5	0
330	56	0.6	0
330	56	0.7	0
330	56	0.8	0
330	56	0.9	0
330	56	1	0
330	56	1.1	0
330	56	1.171766085724	0
332	56	0.1	0
332	56	0.2	0
332	56	0.3	0
332	56	0.4	0
332	56	0.5	0
332	56	0.6	0
332	56	0.7	0
332	56	0.8	0
332	56	0.9	0
332	56	1	0
332	56	1.1	0
332	56	1.171766085724	0
367	56	0.1	0
367	56	0.2	0
367	56	0.3	0
367	56	0.4	0
367	56	0.5	0
367	56	0.6	0
367	56	0.7	0
367	56	0.8	0
367	56	0.9	0
367	56	1	0
367	56	1.1	0
367	56	1.171766085724	0
383	56	0.1	0
383	56	0.2	0
383	56	0.3	0
383	56	0.4	0
383	56	0.5	0
383	56	0.6	0
383	56	0.7	0
383	56	0.8	0
383	56	0.9	0
383	56	1	0
383	56	1.1	0
383	56	1.171766085724	0
385	56	0.1	0
385	56	0.2	0
385	56	0.3	0
385	56	0.4	0
385	56	0.5	0
385	56	0.6	0
385	56	0.7	0
385	56	0.8	0
385	56	0.9	0
385	56	1	0
385	56	1.1	0
385	56	1.171766085724	0
420	56	0.1	0
420	56	0.2	0
420	56	0.3	0
420	56	0.4	0
420	56	0.5	0
420	56	0.6	0
420	56	0.7	0
420	56	0.8	0
420	56	0.9	0
420	56	1	0
420	56	1.1	0
420	56	1.171766085724	0
436	56	0.1	0
436	56	0.2	0
436	56	0.3	0
436	56	0.4	0
436	56	0.5	0
436	56	0.6	0
436	56	0.7	0
436	56	0.8	0
436	56	0.9	0
436	56	1	0
436	56	1.1	0
436	56	1.171766085724	0
438	56	0.1	0
438	56	0.2	0
438	56	0.3	0
438	56	0.4	0
438	56	0.5	0
438	56	0.6	0
438	56	0.7	0
438	56	0.8	0
438	56	0.9	0
438	56	1	0
438	56	1.1	0
438	56	1.171766085724	0
473	56	0.1	0
473	56	0.2	0
473	56	0.3	0
473	56	0.4	0
473	56	0.5	0
473	56	0.6	0
473	56	0.7	0
473	56	0.8	0
473	56	0.9	0
473	56	1	0
473	56	1.1	0
473	56	1.171766085724	0
489	56	0.1	0
489	56	0.2	0
489	56	0.3	0
489	56	0.4	0
489	56	0.5	0
489	56	0.6	0
489	56	0.7	0
489	56	0.8	0
489	56	0.9	0
489	56	1	0
489	56	1.1	0
489	56	1.171766085724	0
491	56	0.1	0
491	56	0.2	0
491	56	0.3	0
491	56	0.4	0
491	56	0.5	0
491	56	0.6	0
491	56	0.7	0
491	56	0.8	0
491	56	0.9	0
491	56	1	0
491	56	1.1	0
491	56	1.171766085724	0
526	56	0.1	0
526	56	0.2	0
526	56	0.3	0
526	56	0.4	0
526	56	0.5	0
526	56	0.6	0
526	56	0.7	0
526	56	0.8	0
526	56	0.9	0
526	56	1	0
526	56	1.1	0
526	56	1.171766085724	0
542	56	0.1	0
542	56	0.2	0
542	56	0.3	0
542	56	0.4	0
542	56	0.5	0
542	56	0.6	0
542	56	0.7	0
542	56	0.8	0
542	56	0.9	0
542	56	1	0
542	56	1.1	0
542	56	1.171766085724	0
544	56	0.1	0
544	56	0.2	0
544	56	0.3	0
544	56	0.4	0
544	56	0.5	0
544	56	0.6	0
544	56	0.7	0
544	56	0.8	0
544	56	0.9	0
544	56	1	0
544	56	1.1	0
544	56	1.171766085724	0
579	56	0.1	0
579	56	0.2	0
579	56	0.3	0
579	56	0.4	0
579	56	0.5	0
579	56	0.6	0
579	56	0.7	0
579	56	0.8	0
579	56	0.9	0
579	56	1	0
579	56	1.1	0
579	56	1.171766085724	0
595	56	0.1	0
595	56	0.2	0
595	56	0.3	0
595	56	0.4	0
595	56	0.5	0
595	56	0.6	0
595	56	0.7	0
595	56	0.8	0
595	56	0.9	0
595	56	1	0
595	56	1.1	0
595	56	1.171766085724	0
597	56	0.1	0
597	56	0.2	0
597	56	0.3	0
597	56	0.4	0
597	56	0.5	0
597	56	0.6	0
597	56	0.7	0
597	56	0.8	0
597	56	0.9	0
597	56	1	0
597	56	1.1	0
597	56	1.171766085724	0
632	56	0.1	0
632	56	0.2	0
632	56	0.3	0
632	56	0.4	0
632	56	0.5	0
632	56	0.6	0
632	56	0.7	0
632	56	0.8	0
632	56	0.9	0
632	56	1	0
632	56	1.1	0
632	56	1.171766085724	0
648	56	0.1	0
648	56	0.2	0
648	56	0.3	0
648	56	0.4	0
648	56	0.5	0
648	56	0.6	0
648	56	0.7	0
648	56	0.8	0
648	56	0.9	0
648	56	1	0
648	56	1.1	0
648	56	1.171766085724	0
650	56	0.1	0
650	56	0.2	0
650	56	0.3	0
650	56	0.4	0
650	56	0.5	0
650	56	0.6	0
650	56	0.7	0
650	56	0.8	0
650	56	0.9	0
650	56	1	0
650	56	1.1	0
650	56	1.171766085724	0
685	56	0.1	0
685	56	0.2	0
685	56	0.3	0
685	56	0.4	0
685	56	0.5	0
685	56	0.6	0
685	56	0.7	0
685	56	0.8	0
685	56	0.9	0
685	56	1	0
685	56	1.1	0
685	56	1.171766085724	0
701	56	1.171766085724	3121.2514621665
703	56	1.171766085724	3121.2514621665
738	56	0.1	0
738	56	0.2	0
738	56	0.3	0
738	56	0.4	0
738	56	0.5	0
738	56	0.6	0
738	56	0.7	0
738	56	0.8	0
738	56	0.9	0
738	56	1	0
738	56	1.1	0
738	56	1.171766085724	0
754	56	0.1	0
754	56	0.2	0
754	56	0.3	0
754	56	0.4	0
754	56	0.5	0
754	56	0.6	0
754	56	0.7	0
754	56	0.8	0
754	56	0.9	0
754	56	1	0
754	56	1.1	0
754	56	1.171766085724	0
756	56	0.1	0
756	56	0.2	0
756	56	0.3	0
756	56	0.4	0
756	56	0.5	0
756	56	0.6	0
756	56	0.7	0
756	56	0.8	0
756	56	0.9	0
756	56	1	0
756	56	1.1	0
756	56	1.171766085724	0
791	56	0.1	0
791	56	0.2	0
791	56	0.3	0
791	56	0.4	0
791	56	0.5	0
791	56	0.6	0
791	56	0.7	0
791	56	0.8	0
791	56	0.9	0
791	56	1	0
791	56	1.1	0
791	56	1.171766085724	0
803	56	0.1	0
803	56	0.2	0
803	56	0.3	0
803	56	0.4	0
803	56	0.5	0
803	56	0.6	0
803	56	0.7	0
803	56	0.8	0
803	56	0.9	0
803	56	1	0
803	56	1.1	0
803	56	1.171766085724	0
805	56	0.1	0
805	56	0.2	0
805	56	0.3	0
805	56	0.4	0
805	56	0.5	0
805	56	0.6	0
805	56	0.7	0
805	56	0.8	0
805	56	0.9	0
805	56	1	0
805	56	1.1	0
805	56	1.171766085724	0
834	56	0.1	0
834	56	0.2	0
834	56	0.3	0
834	56	0.4	0
834	56	0.5	0
834	56	0.6	0
834	56	0.7	0
834	56	0.8	0
834	56	0.9	0
834	56	1	0
834	56	1.1	0
834	56	1.171766085724	0
845	56	0.1	0
845	56	0.2	0
845	56	0.3	0
845	56	0.4	0
845	56	0.5	0
845	56	0.6	0
845	56	0.7	0
845	56	0.8	0
845	56	0.9	0
845	56	1	0
845	56	1.1	0
845	56	1.171766085724	0
847	56	0.1	0
847	56	0.2	0
847	56	0.3	0
847	56	0.4	0
847	56	0.5	0
847	56	0.6	0
847	56	0.7	0
847	56	0.8	0
847	56	0.9	0
847	56	1	0
847	56	1.1	0
847	56	1.171766085724	0
876	56	0.1	0
876	56	0.2	0
876	56	0.3	0
876	56	0.4	0
876	56	0.5	0
876	56	0.6	0
876	56	0.7	0
876	56	0.8	0
876	56	0.9	0
876	56	1	0
876	56	1.1	0
876	56	1.171766085724	0

