file 286197 1751726295                                          
version 3
run General-0-20250705-20:35:56-3920
attr configname General
attr datetime 20250705-20:35:56
attr datetimef 20250705-203556
attr experiment General
attr inifile omnetpp.ini
attr iterationvars ""
attr iterationvarsd ""
attr iterationvarsf ""
attr measurement ""
attr network WSN_EnergyEfficient
attr processid 3920
attr repetition 0
attr replication #0
attr resultdir results
attr runnumber 0
attr seedset 0
config image-path ../../inet4.5/images
config network WSN_EnergyEfficient
config sim-time-limit 200s
config *.visualizer.energyStorageVisualizer.displayEnergyStorages true
config *.visualizer.dataLinkVisualizer.displayLinks true
config *.visualizer.dataLinkVisualizer.packetFilter "\"*\""
config *.visualizer.networkRouteVisualizer.displayRoutes true
config *.visualizer.networkRouteVisualizer.packetFilter "\"*\""
config *.visualizer.networkRouteVisualizer.lineColor "\"blue\""
config *.visualizer.physicalLinkVisualizer.displayLinks true
config *.visualizer.mobilityVisualizer.displayMobility true
config *.visualizer.mobilityVisualizer.displayMovementTrails true
config *.sensorNode*.hasStatus true
config *.sensorNode*.energyStorage.typename SimpleEpEnergyStorage
config *.sensorNode*.wlan[0].radio.energyConsumer.typename StateBasedEpEnergyConsumer
config *.sensorNode*.energyManagement.typename SimpleEpEnergyManagement
config *.sensorNode*.energyStorage.nominalCapacity 0.15J
config *.sensorNode*.energyStorage.initialCapacity 0.15J
config *.sensorNode*.energyStorage.printCapacityStep 0.0015J
config *.sensorNode*.energyManagement.nodeShutdownCapacity 0.06J
config *.sensorNode*.energyManagement.nodeStartCapacity 0.09J
config *.sensorNode*.energyGenerator.typename AlternatingEpEnergyGenerator
config *.sensorNode*.energyGenerator.powerGeneration 3mW
config *.sensorNode*.energyGenerator.sleepInterval exponential(15s)
config *.sensorNode*.energyGenerator.generationInterval exponential(20s)
config *.sensorNode*.mobility.typename StationaryMobility
config *.sensorNode*.mobility.initFromDisplayString true
config *.accessPoint*.mobility.typename StationaryMobility
config *.accessPoint*.mobility.initFromDisplayString true
config **.wlan[*].typename Ieee802154NarrowbandInterface
config **.wlan[*].radio.transmitter.power 2.24mW
config **.wlan[*].radio.receiver.sensitivity -85dBm
config **.wlan[*].radio.receiver.energyDetection -85dBm
config **.wlan[*].radio.receiver.snirThreshold 4dB
config **.wlan[*].radio.centerFrequency 2.4GHz
config **.wlan[*].radio.bandwidth 2MHz
config **.wlan[*].mac.useMACAcks true
config **.wlan[*].mac.rxSetupTime 0.00192s
config **.radioMedium.backgroundNoise.power -110dBm
config *.*.routing.typename Aodv
config *.configurator.addStaticRoutes false
config *.configurator.addDefaultRoutes false
config *.configurator.addSubnetRoutes false
config *.configurator.optimizeRoutes false
config *.sensorNode*.numApps 2
config *.sensorNode*.app[0].typename PingApp
config *.sensorNode*.app[0].destAddr "\"accessPoint0\""
config *.sensorNode*.app[0].startTime "uniform(1s, 10s)"
config *.sensorNode*.app[0].stopTime 190s
config *.sensorNode*.app[0].sendInterval exponential(20s)
config *.sensorNode*.app[0].packetSize 64B
config *.sensorNode*.app[0].printPing true
config *.sensorNode*.app[1].typename UdpBasicApp
config *.sensorNode*.app[1].destAddresses "\"accessPoint0\""
config *.sensorNode*.app[1].destPort 5000
config *.sensorNode*.app[1].messageLength 32B
config *.sensorNode*.app[1].sendInterval exponential(25s)
config *.sensorNode*.app[1].startTime "uniform(5s, 15s)"
config *.sensorNode*.app[1].stopTime 190s
config *.accessPoint*.numApps 1
config *.accessPoint*.hasStatus true
config *.accessPoint*.app[0].typename UdpSink
config *.accessPoint*.app[0].localPort 5000
config *.sensorNode*.wlan[0].mac.typename Ieee802154Mac
config *.sensorNode*.wlan[0].mac.macMaxFrameRetries 3
config *.sensorNode*.wlan[0].mac.macMaxBE 5
config *.sensorNode*.wlan[0].mac.macMinBE 3
config *.accessPoint*.wlan[0].mac.typename Ieee802154Mac
config *.accessPoint*.wlan[0].mac.macMaxFrameRetries 3
config *.sensorNode*.wlan[0].mac.recordStatistics true
config *.accessPoint*.wlan[0].mac.recordStatistics true
config *.radioMedium.pathLoss.typename FreeSpacePathLoss
config *.sensorNode*.wlan[0].radio.displayCommunicationRange false
config *.accessPoint*.wlan[0].radio.displayCommunicationRange false
config *.radioMedium.carrierFrequency 2.4GHz
config *.radioMedium.bandwidth 250kbps

vector 0 WSN_EnergyEfficient.sensorNode0.energyStorage powerConsumption:vector ETV
attr interpolationmode sample-hold
attr recordingmode vector
attr source powerConsumptionChanged
attr title "Power consumption"
attr unit W
vector 1 WSN_EnergyEfficient.sensorNode0.energyStorage powerGeneration:vector ETV
attr interpolationmode sample-hold
attr recordingmode vector
attr source powerGenerationChanged
attr title "Power generation"
attr unit W
vector 2 WSN_EnergyEfficient.sensorNode0.energyStorage residualEnergyCapacity:vector ETV
attr interpolationmode linear
attr recordingmode vector
attr source residualEnergyCapacityChanged
attr title "Residual energy capacity"
attr unit J
vector 3 WSN_EnergyEfficient.sensorNode0.energyGenerator powerGeneration:vector ETV
attr interpolationmode sample-hold
attr recordingmode vector
attr source powerGenerationChanged
attr title "Power generation"
attr unit W
vector 4 WSN_EnergyEfficient.sensorNode0.lo[0].lo rcvdPkFromHl:vector(packetBytes) ETV
attr interpolationmode none
attr recordingmode vector(packetBytes)
attr source packetReceivedFromUpper
attr title "packets received from higher layer, packetBytes"
vector 5 WSN_EnergyEfficient.sensorNode0.lo[0].lo passedUpPk:vector(packetBytes) ETV
attr interpolationmode none
attr recordingmode vector(packetBytes)
attr source packetSentToUpper
attr title "packets passed to higher layer, packetBytes"
vector 6 WSN_EnergyEfficient.sensorNode0.lo[0] packetDropInterfaceDown:vector(packetBytes) ETV
attr interpolationmode none
attr recordingmode vector(packetBytes)
attr source packetDropReasonIsInterfaceDown(packetDropped)
attr title "packet drops: interface down, packetBytes"
vector 7 WSN_EnergyEfficient.sensorNode0.lo[0] packetDropNoCarrier:vector(packetBytes) ETV
attr interpolationmode none
attr recordingmode vector(packetBytes)
attr source packetDropReasonIsNoCarrier(packetDropped)
attr title "packet drops: no carrier, packetBytes"
vector 8 WSN_EnergyEfficient.sensorNode0.wlan[0].queue queueLength:vector ETV
attr autoWarmupFilter false
attr interpolationmode sample-hold
attr recordingmode vector
attr source "warmup(atomic(constant0(packetPushEnded) + count(packetPushStarted) - count(packetPulled) - count(packetRemoved) - count(packetDropped)))"
attr title "queue length"
attr unit pk
vector 9 WSN_EnergyEfficient.sensorNode0.wlan[0].queue queueBitLength:vector ETV
attr autoWarmupFilter false
attr interpolationmode sample-hold
attr recordingmode vector
attr source "warmup(atomic(constant0(packetPushEnded) + sum(packetLength(packetPushStarted)) - sum(packetLength(packetPulled)) - sum(packetLength(packetRemoved)) - sum(packetLength(packetDropped))))"
attr title "queue bit length"
attr unit b
vector 10 WSN_EnergyEfficient.sensorNode0.wlan[0].queue queueingTime:vector ETV
attr interpolationmode none
attr recordingmode vector
attr source queueingTime(packetPulled)
attr title "queueing times"
attr unit s
vector 11 WSN_EnergyEfficient.sensorNode0.wlan[0].queue incomingPacketLengths:vector ETV
attr interpolationmode none
attr recordingmode vector
attr source packetLength(packetPushStarted)
attr title "incoming packet lengths"
attr unit b
vector 12 WSN_EnergyEfficient.sensorNode0.wlan[0].queue incomingDataRate:vector ETV
attr interpolationmode linear
attr recordingmode vector
attr source throughput(packetPushStarted)
attr title "incoming datarate"
attr unit bps
vector 13 WSN_EnergyEfficient.sensorNode0.wlan[0].queue outgoingPacketLengths:vector ETV
attr interpolationmode none
attr recordingmode vector
attr source packetLength(packetPulled)
attr title "outgoing packet lengths"
attr unit b
vector 14 WSN_EnergyEfficient.sensorNode0.wlan[0].queue outgoingDataRate:vector ETV
attr interpolationmode linear
attr recordingmode vector
attr source throughput(packetPulled)
attr title "outgoing datarate"
attr unit bps
vector 15 WSN_EnergyEfficient.sensorNode0.wlan[0].queue droppedPacketLengthsQueueOverflow:vector ETV
attr interpolationmode none
attr recordingmode vector
attr source packetLength(packetDropReasonIsQueueOverflow(packetDropped))
attr title "dropped packet lengths: queue overflow"
attr unit b
vector 16 WSN_EnergyEfficient.sensorNode0.wlan[0].queue flowQueueingTime:vector ETV
attr interpolationmode none
attr recordingmode vector
attr source queueingTime(demuxFlow(packetPulled))
attr title "flow queueing times"
attr unit s
vector 17 WSN_EnergyEfficient.sensorNode0.wlan[0].queue flowIncomingDataRate:vector ETV
attr interpolationmode linear
attr recordingmode vector
attr source throughput(flowPacketLength(demuxFlow(packetPushStarted)))
attr title "flow specific incoming data rate"
attr unit bps
vector 18 WSN_EnergyEfficient.sensorNode0.wlan[0].queue flowOutgoingDataRate:vector ETV
attr interpolationmode linear
attr recordingmode vector
attr source throughput(flowPacketLength(demuxFlow(packetPulled)))
attr title "flow specific outgoing data rate"
attr unit bps
vector 19 WSN_EnergyEfficient.sensorNode0.wlan[0].mac packetDropNotAddressToUs:vector(packetBytes) ETV
attr interpolationmode none
attr recordingmode vector(packetBytes)
attr source packetDropReasonIsNotAddressedToUs(packetDropped)
attr title "packet drop: not addressed to us, packetBytes"
vector 20 WSN_EnergyEfficient.sensorNode0.wlan[0].mac packetDropIncorrectlyReceived:vector(packetBytes) ETV
attr interpolationmode none
attr recordingmode vector(packetBytes)
attr source packetDropReasonIsIncorrectlyReceived(packetDropped)
attr title "packet drop: incorrectly received, packetBytes"
vector 21 WSN_EnergyEfficient.sensorNode0.wlan[0].mac packetDropQueueOverflow:vector(packetBytes) ETV
attr interpolationmode none
attr recordingmode vector(packetBytes)
attr source packetDropReasonIsQueueOverflow(packetDropped)
attr title "packet drop: queue overflow, packetBytes"
vector 22 WSN_EnergyEfficient.sensorNode0.wlan[0].mac packetDropRetryLimitReached:vector(packetBytes) ETV
attr interpolationmode none
attr recordingmode vector(packetBytes)
attr source packetDropReasonIsRetryLimitReached(packetDropped)
attr title "packet drop: retry limit reached, packetBytes"
vector 23 WSN_EnergyEfficient.sensorNode0.wlan[0].mac packetDropBackoffLimitReached:vector(packetBytes) ETV
attr interpolationmode none
attr recordingmode vector(packetBytes)
attr source packetDropReasonIsCongestion(packetDropped)
attr title "packet drop: backoff limit reached, packetBytes"
vector 24 WSN_EnergyEfficient.sensorNode0.wlan[0].radio.energyConsumer powerConsumption:vector ETV
attr interpolationmode sample-hold
attr recordingmode vector
attr source powerConsumptionChanged
attr title "Power consumption"
attr unit W
vector 25 WSN_EnergyEfficient.sensorNode0.wlan[0].radio radioMode:vector ETV
attr interpolationmode sample-hold
attr recordingmode vector
attr source radioModeChanged
attr title "Radio mode"
vector 26 WSN_EnergyEfficient.sensorNode0.wlan[0].radio receptionState:vector ETV
attr interpolationmode sample-hold
attr recordingmode vector
attr source receptionStateChanged
attr title "Radio reception state"
vector 27 WSN_EnergyEfficient.sensorNode0.wlan[0].radio transmissionState:vector ETV
attr interpolationmode sample-hold
attr recordingmode vector
attr source transmissionStateChanged
attr title "Radio transmission state"
vector 28 WSN_EnergyEfficient.sensorNode0.wlan[0] packetDropInterfaceDown:vector(packetBytes) ETV
attr interpolationmode none
attr recordingmode vector(packetBytes)
attr source packetDropReasonIsInterfaceDown(packetDropped)
attr title "packet drops: interface down, packetBytes"
vector 29 WSN_EnergyEfficient.sensorNode0.wlan[0] packetDropNoCarrier:vector(packetBytes) ETV
attr interpolationmode none
attr recordingmode vector(packetBytes)
attr source packetDropReasonIsNoCarrier(packetDropped)
attr title "packet drops: no carrier, packetBytes"
vector 30 WSN_EnergyEfficient.sensorNode0.ipv4.ip packetDropAddressResolutionFailed:vector(packetBytes) ETV
attr interpolationmode none
attr recordingmode vector(packetBytes)
attr source packetDropReasonIsAddressResolutionFailed(packetDropped)
attr title "packet drop: address resolution failed, packetBytes"
vector 31 WSN_EnergyEfficient.sensorNode0.ipv4.ip packetDropHopLimitReached:vector(packetBytes) ETV
attr interpolationmode none
attr recordingmode vector(packetBytes)
attr source packetDropReasonIsHopLimitReached(packetDropped)
attr title "packet drop: hop limit reached, packetBytes"
vector 32 WSN_EnergyEfficient.sensorNode0.ipv4.ip packetDropForwardingDisabled:vector(packetBytes) ETV
attr interpolationmode none
attr recordingmode vector(packetBytes)
attr source packetDropReasonIsForwardingDisabled(packetDropped)
attr title "packet drop: forwarding disabled, packetBytes"
vector 33 WSN_EnergyEfficient.sensorNode0.ipv4.ip packetDropNoInterfaceFound:vector(packetBytes) ETV
attr interpolationmode none
attr recordingmode vector(packetBytes)
attr source packetDropReasonIsNoInterfaceFound(packetDropped)
attr title "packet drop: no interface found, packetBytes"
vector 34 WSN_EnergyEfficient.sensorNode0.ipv4.ip packetDropNoRouteFound:vector(packetBytes) ETV
attr interpolationmode none
attr recordingmode vector(packetBytes)
attr source packetDropReasonIsNoRouteFound(packetDropped)
attr title "packet drop: no route found, packetBytes"
vector 35 WSN_EnergyEfficient.sensorNode0.ipv4.ip packetDropUndefined:vector(packetBytes) ETV
attr interpolationmode none
attr recordingmode vector(packetBytes)
attr source packetDropReasonIsUndefined(packetDropped)
attr title "packet drop: undefined, packetBytes"
vector 36 WSN_EnergyEfficient.sensorNode0.ipv4.arp arpRequestSent:vector(packetBytes) ETV
attr recordingmode vector(packetBytes)
attr source arpRequestSent
attr title "ARP request sent, packetBytes"
vector 37 WSN_EnergyEfficient.sensorNode0.ipv4.arp arpReplySent:vector(packetBytes) ETV
attr recordingmode vector(packetBytes)
attr source arpReplySent
attr title "ARP replies sent, packetBytes"
vector 38 WSN_EnergyEfficient.sensorNode0.udp packetSent:vector(packetBytes) ETV
attr interpolationmode none
attr recordingmode vector(packetBytes)
attr source packetSent
attr title "packets sent, packetBytes"
vector 39 WSN_EnergyEfficient.sensorNode0.udp packetReceived:vector(packetBytes) ETV
attr interpolationmode none
attr recordingmode vector(packetBytes)
attr source packetReceived
attr title "packets received, packetBytes"
vector 40 WSN_EnergyEfficient.sensorNode0.udp passedUpPk:vector(count) ETV
attr interpolationmode none
attr recordingmode vector(count)
attr source packetSentToUpper
attr title "packets passed up, count"
vector 41 WSN_EnergyEfficient.sensorNode0.udp droppedPkWrongPort:vector(count) ETV
attr interpolationmode none
attr recordingmode vector(count)
attr source packetDropReasonIsNoPortFound(packetDropped)
attr title "packets dropped (wrong port), count"
vector 42 WSN_EnergyEfficient.sensorNode0.udp droppedPkBadChecksum:vector(count) ETV
attr interpolationmode none
attr recordingmode vector(count)
attr source packetDropReasonIsIncorrectlyReceived(packetDropped)
attr title "packets dropped (checksum error), count"
vector 43 WSN_EnergyEfficient.sensorNode0.app[0] rtt:vector ETV
attr interpolationmode none
attr recordingmode vector
attr title "ping round-trip time"
attr unit s
vector 44 WSN_EnergyEfficient.sensorNode0.app[0] numLost:vector ETV
attr interpolationmode none
attr recordingmode vector
attr title "pings lost"
vector 45 WSN_EnergyEfficient.sensorNode0.app[0] numOutOfOrderArrivals:vector ETV
attr interpolationmode none
attr recordingmode vector
attr title "ping out-of-order arrivals"
vector 46 WSN_EnergyEfficient.sensorNode0.app[0] pingTxSeq:vector ETV
attr interpolationmode none
attr recordingmode vector
attr title "ping tx seq"
vector 47 WSN_EnergyEfficient.sensorNode0.app[0] pingRxSeq:vector ETV
attr interpolationmode none
attr recordingmode vector
attr title "ping rx seq"
vector 48 WSN_EnergyEfficient.sensorNode0.app[1] packetReceived:vector(packetBytes) ETV
attr interpolationmode none
attr recordingmode vector(packetBytes)
attr source packetReceived
attr title "packets received, packetBytes"
vector 49 WSN_EnergyEfficient.sensorNode0.app[1] throughput:vector ETV
attr recordingmode vector
attr source throughput(packetReceived)
attr title throughput
attr unit bps
vector 50 WSN_EnergyEfficient.sensorNode0.app[1] packetSent:vector(packetBytes) ETV
attr interpolationmode none
attr recordingmode vector(packetBytes)
attr source packetSent
attr title "packets sent, packetBytes"
vector 51 WSN_EnergyEfficient.sensorNode0.app[1] rcvdPkLifetime:vector ETV
attr interpolationmode none
attr recordingmode vector
attr source dataAge(packetReceived)
attr title "received packet lifetime"
attr unit s
vector 52 WSN_EnergyEfficient.sensorNode0.app[1] rcvdPkSeqNo:vector ETV
attr interpolationmode none
attr recordingmode vector
attr source appPkSeqNo(packetReceived)
attr title "received packet sequence number"
vector 53 WSN_EnergyEfficient.sensorNode1.energyStorage powerConsumption:vector ETV
attr interpolationmode sample-hold
attr recordingmode vector
attr source powerConsumptionChanged
attr title "Power consumption"
attr unit W
vector 54 WSN_EnergyEfficient.sensorNode1.energyStorage powerGeneration:vector ETV
attr interpolationmode sample-hold
attr recordingmode vector
attr source powerGenerationChanged
attr title "Power generation"
attr unit W
vector 55 WSN_EnergyEfficient.sensorNode1.energyStorage residualEnergyCapacity:vector ETV
attr interpolationmode linear
attr recordingmode vector
attr source residualEnergyCapacityChanged
attr title "Residual energy capacity"
attr unit J
vector 56 WSN_EnergyEfficient.sensorNode1.energyGenerator powerGeneration:vector ETV
attr interpolationmode sample-hold
attr recordingmode vector
attr source powerGenerationChanged
attr title "Power generation"
attr unit W
vector 57 WSN_EnergyEfficient.sensorNode1.lo[0].lo rcvdPkFromHl:vector(packetBytes) ETV
attr interpolationmode none
attr recordingmode vector(packetBytes)
attr source packetReceivedFromUpper
attr title "packets received from higher layer, packetBytes"
vector 58 WSN_EnergyEfficient.sensorNode1.lo[0].lo passedUpPk:vector(packetBytes) ETV
attr interpolationmode none
attr recordingmode vector(packetBytes)
attr source packetSentToUpper
attr title "packets passed to higher layer, packetBytes"
vector 59 WSN_EnergyEfficient.sensorNode1.lo[0] packetDropInterfaceDown:vector(packetBytes) ETV
attr interpolationmode none
attr recordingmode vector(packetBytes)
attr source packetDropReasonIsInterfaceDown(packetDropped)
attr title "packet drops: interface down, packetBytes"
vector 60 WSN_EnergyEfficient.sensorNode1.lo[0] packetDropNoCarrier:vector(packetBytes) ETV
attr interpolationmode none
attr recordingmode vector(packetBytes)
attr source packetDropReasonIsNoCarrier(packetDropped)
attr title "packet drops: no carrier, packetBytes"
vector 61 WSN_EnergyEfficient.sensorNode1.wlan[0].queue queueLength:vector ETV
attr autoWarmupFilter false
attr interpolationmode sample-hold
attr recordingmode vector
attr source "warmup(atomic(constant0(packetPushEnded) + count(packetPushStarted) - count(packetPulled) - count(packetRemoved) - count(packetDropped)))"
attr title "queue length"
attr unit pk
vector 62 WSN_EnergyEfficient.sensorNode1.wlan[0].queue queueBitLength:vector ETV
attr autoWarmupFilter false
attr interpolationmode sample-hold
attr recordingmode vector
attr source "warmup(atomic(constant0(packetPushEnded) + sum(packetLength(packetPushStarted)) - sum(packetLength(packetPulled)) - sum(packetLength(packetRemoved)) - sum(packetLength(packetDropped))))"
attr title "queue bit length"
attr unit b
vector 63 WSN_EnergyEfficient.sensorNode1.wlan[0].queue queueingTime:vector ETV
attr interpolationmode none
attr recordingmode vector
attr source queueingTime(packetPulled)
attr title "queueing times"
attr unit s
vector 64 WSN_EnergyEfficient.sensorNode1.wlan[0].queue incomingPacketLengths:vector ETV
attr interpolationmode none
attr recordingmode vector
attr source packetLength(packetPushStarted)
attr title "incoming packet lengths"
attr unit b
vector 65 WSN_EnergyEfficient.sensorNode1.wlan[0].queue incomingDataRate:vector ETV
attr interpolationmode linear
attr recordingmode vector
attr source throughput(packetPushStarted)
attr title "incoming datarate"
attr unit bps
vector 66 WSN_EnergyEfficient.sensorNode1.wlan[0].queue outgoingPacketLengths:vector ETV
attr interpolationmode none
attr recordingmode vector
attr source packetLength(packetPulled)
attr title "outgoing packet lengths"
attr unit b
vector 67 WSN_EnergyEfficient.sensorNode1.wlan[0].queue outgoingDataRate:vector ETV
attr interpolationmode linear
attr recordingmode vector
attr source throughput(packetPulled)
attr title "outgoing datarate"
attr unit bps
vector 68 WSN_EnergyEfficient.sensorNode1.wlan[0].queue droppedPacketLengthsQueueOverflow:vector ETV
attr interpolationmode none
attr recordingmode vector
attr source packetLength(packetDropReasonIsQueueOverflow(packetDropped))
attr title "dropped packet lengths: queue overflow"
attr unit b
vector 69 WSN_EnergyEfficient.sensorNode1.wlan[0].queue flowQueueingTime:vector ETV
attr interpolationmode none
attr recordingmode vector
attr source queueingTime(demuxFlow(packetPulled))
attr title "flow queueing times"
attr unit s
vector 70 WSN_EnergyEfficient.sensorNode1.wlan[0].queue flowIncomingDataRate:vector ETV
attr interpolationmode linear
attr recordingmode vector
attr source throughput(flowPacketLength(demuxFlow(packetPushStarted)))
attr title "flow specific incoming data rate"
attr unit bps
vector 71 WSN_EnergyEfficient.sensorNode1.wlan[0].queue flowOutgoingDataRate:vector ETV
attr interpolationmode linear
attr recordingmode vector
attr source throughput(flowPacketLength(demuxFlow(packetPulled)))
attr title "flow specific outgoing data rate"
attr unit bps
vector 72 WSN_EnergyEfficient.sensorNode1.wlan[0].mac packetDropNotAddressToUs:vector(packetBytes) ETV
attr interpolationmode none
attr recordingmode vector(packetBytes)
attr source packetDropReasonIsNotAddressedToUs(packetDropped)
attr title "packet drop: not addressed to us, packetBytes"
vector 73 WSN_EnergyEfficient.sensorNode1.wlan[0].mac packetDropIncorrectlyReceived:vector(packetBytes) ETV
attr interpolationmode none
attr recordingmode vector(packetBytes)
attr source packetDropReasonIsIncorrectlyReceived(packetDropped)
attr title "packet drop: incorrectly received, packetBytes"
vector 74 WSN_EnergyEfficient.sensorNode1.wlan[0].mac packetDropQueueOverflow:vector(packetBytes) ETV
attr interpolationmode none
attr recordingmode vector(packetBytes)
attr source packetDropReasonIsQueueOverflow(packetDropped)
attr title "packet drop: queue overflow, packetBytes"
vector 75 WSN_EnergyEfficient.sensorNode1.wlan[0].mac packetDropRetryLimitReached:vector(packetBytes) ETV
attr interpolationmode none
attr recordingmode vector(packetBytes)
attr source packetDropReasonIsRetryLimitReached(packetDropped)
attr title "packet drop: retry limit reached, packetBytes"
vector 76 WSN_EnergyEfficient.sensorNode1.wlan[0].mac packetDropBackoffLimitReached:vector(packetBytes) ETV
attr interpolationmode none
attr recordingmode vector(packetBytes)
attr source packetDropReasonIsCongestion(packetDropped)
attr title "packet drop: backoff limit reached, packetBytes"
vector 77 WSN_EnergyEfficient.sensorNode1.wlan[0].radio.energyConsumer powerConsumption:vector ETV
attr interpolationmode sample-hold
attr recordingmode vector
attr source powerConsumptionChanged
attr title "Power consumption"
attr unit W
vector 78 WSN_EnergyEfficient.sensorNode1.wlan[0].radio radioMode:vector ETV
attr interpolationmode sample-hold
attr recordingmode vector
attr source radioModeChanged
attr title "Radio mode"
vector 79 WSN_EnergyEfficient.sensorNode1.wlan[0].radio receptionState:vector ETV
attr interpolationmode sample-hold
attr recordingmode vector
attr source receptionStateChanged
attr title "Radio reception state"
vector 80 WSN_EnergyEfficient.sensorNode1.wlan[0].radio transmissionState:vector ETV
attr interpolationmode sample-hold
attr recordingmode vector
attr source transmissionStateChanged
attr title "Radio transmission state"
vector 81 WSN_EnergyEfficient.sensorNode1.wlan[0] packetDropInterfaceDown:vector(packetBytes) ETV
attr interpolationmode none
attr recordingmode vector(packetBytes)
attr source packetDropReasonIsInterfaceDown(packetDropped)
attr title "packet drops: interface down, packetBytes"
vector 82 WSN_EnergyEfficient.sensorNode1.wlan[0] packetDropNoCarrier:vector(packetBytes) ETV
attr interpolationmode none
attr recordingmode vector(packetBytes)
attr source packetDropReasonIsNoCarrier(packetDropped)
attr title "packet drops: no carrier, packetBytes"
vector 83 WSN_EnergyEfficient.sensorNode1.ipv4.ip packetDropAddressResolutionFailed:vector(packetBytes) ETV
attr interpolationmode none
attr recordingmode vector(packetBytes)
attr source packetDropReasonIsAddressResolutionFailed(packetDropped)
attr title "packet drop: address resolution failed, packetBytes"
vector 84 WSN_EnergyEfficient.sensorNode1.ipv4.ip packetDropHopLimitReached:vector(packetBytes) ETV
attr interpolationmode none
attr recordingmode vector(packetBytes)
attr source packetDropReasonIsHopLimitReached(packetDropped)
attr title "packet drop: hop limit reached, packetBytes"
vector 85 WSN_EnergyEfficient.sensorNode1.ipv4.ip packetDropForwardingDisabled:vector(packetBytes) ETV
attr interpolationmode none
attr recordingmode vector(packetBytes)
attr source packetDropReasonIsForwardingDisabled(packetDropped)
attr title "packet drop: forwarding disabled, packetBytes"
vector 86 WSN_EnergyEfficient.sensorNode1.ipv4.ip packetDropNoInterfaceFound:vector(packetBytes) ETV
attr interpolationmode none
attr recordingmode vector(packetBytes)
attr source packetDropReasonIsNoInterfaceFound(packetDropped)
attr title "packet drop: no interface found, packetBytes"
vector 87 WSN_EnergyEfficient.sensorNode1.ipv4.ip packetDropNoRouteFound:vector(packetBytes) ETV
attr interpolationmode none
attr recordingmode vector(packetBytes)
attr source packetDropReasonIsNoRouteFound(packetDropped)
attr title "packet drop: no route found, packetBytes"
vector 88 WSN_EnergyEfficient.sensorNode1.ipv4.ip packetDropUndefined:vector(packetBytes) ETV
attr interpolationmode none
attr recordingmode vector(packetBytes)
attr source packetDropReasonIsUndefined(packetDropped)
attr title "packet drop: undefined, packetBytes"
vector 89 WSN_EnergyEfficient.sensorNode1.ipv4.arp arpRequestSent:vector(packetBytes) ETV
attr recordingmode vector(packetBytes)
attr source arpRequestSent
attr title "ARP request sent, packetBytes"
vector 90 WSN_EnergyEfficient.sensorNode1.ipv4.arp arpReplySent:vector(packetBytes) ETV
attr recordingmode vector(packetBytes)
attr source arpReplySent
attr title "ARP replies sent, packetBytes"
vector 91 WSN_EnergyEfficient.sensorNode1.udp packetSent:vector(packetBytes) ETV
attr interpolationmode none
attr recordingmode vector(packetBytes)
attr source packetSent
attr title "packets sent, packetBytes"
vector 92 WSN_EnergyEfficient.sensorNode1.udp packetReceived:vector(packetBytes) ETV
attr interpolationmode none
attr recordingmode vector(packetBytes)
attr source packetReceived
attr title "packets received, packetBytes"
vector 93 WSN_EnergyEfficient.sensorNode1.udp passedUpPk:vector(count) ETV
attr interpolationmode none
attr recordingmode vector(count)
attr source packetSentToUpper
attr title "packets passed up, count"
vector 94 WSN_EnergyEfficient.sensorNode1.udp droppedPkWrongPort:vector(count) ETV
attr interpolationmode none
attr recordingmode vector(count)
attr source packetDropReasonIsNoPortFound(packetDropped)
attr title "packets dropped (wrong port), count"
vector 95 WSN_EnergyEfficient.sensorNode1.udp droppedPkBadChecksum:vector(count) ETV
attr interpolationmode none
attr recordingmode vector(count)
attr source packetDropReasonIsIncorrectlyReceived(packetDropped)
attr title "packets dropped (checksum error), count"
vector 96 WSN_EnergyEfficient.sensorNode1.app[0] rtt:vector ETV
attr interpolationmode none
attr recordingmode vector
attr title "ping round-trip time"
attr unit s
vector 97 WSN_EnergyEfficient.sensorNode1.app[0] numLost:vector ETV
attr interpolationmode none
attr recordingmode vector
attr title "pings lost"
vector 98 WSN_EnergyEfficient.sensorNode1.app[0] numOutOfOrderArrivals:vector ETV
attr interpolationmode none
attr recordingmode vector
attr title "ping out-of-order arrivals"
vector 99 WSN_EnergyEfficient.sensorNode1.app[0] pingTxSeq:vector ETV
attr interpolationmode none
attr recordingmode vector
attr title "ping tx seq"
vector 100 WSN_EnergyEfficient.sensorNode1.app[0] pingRxSeq:vector ETV
attr interpolationmode none
attr recordingmode vector
attr title "ping rx seq"
vector 101 WSN_EnergyEfficient.sensorNode1.app[1] packetReceived:vector(packetBytes) ETV
attr interpolationmode none
attr recordingmode vector(packetBytes)
attr source packetReceived
attr title "packets received, packetBytes"
vector 102 WSN_EnergyEfficient.sensorNode1.app[1] throughput:vector ETV
attr recordingmode vector
attr source throughput(packetReceived)
attr title throughput
attr unit bps
vector 103 WSN_EnergyEfficient.sensorNode1.app[1] packetSent:vector(packetBytes) ETV
attr interpolationmode none
attr recordingmode vector(packetBytes)
attr source packetSent
attr title "packets sent, packetBytes"
vector 104 WSN_EnergyEfficient.sensorNode1.app[1] rcvdPkLifetime:vector ETV
attr interpolationmode none
attr recordingmode vector
attr source dataAge(packetReceived)
attr title "received packet lifetime"
attr unit s
vector 105 WSN_EnergyEfficient.sensorNode1.app[1] rcvdPkSeqNo:vector ETV
attr interpolationmode none
attr recordingmode vector
attr source appPkSeqNo(packetReceived)
attr title "received packet sequence number"
vector 106 WSN_EnergyEfficient.sensorNode2.energyStorage powerConsumption:vector ETV
attr interpolationmode sample-hold
attr recordingmode vector
attr source powerConsumptionChanged
attr title "Power consumption"
attr unit W
vector 107 WSN_EnergyEfficient.sensorNode2.energyStorage powerGeneration:vector ETV
attr interpolationmode sample-hold
attr recordingmode vector
attr source powerGenerationChanged
attr title "Power generation"
attr unit W
vector 108 WSN_EnergyEfficient.sensorNode2.energyStorage residualEnergyCapacity:vector ETV
attr interpolationmode linear
attr recordingmode vector
attr source residualEnergyCapacityChanged
attr title "Residual energy capacity"
attr unit J
vector 109 WSN_EnergyEfficient.sensorNode2.energyGenerator powerGeneration:vector ETV
attr interpolationmode sample-hold
attr recordingmode vector
attr source powerGenerationChanged
attr title "Power generation"
attr unit W
vector 110 WSN_EnergyEfficient.sensorNode2.lo[0].lo rcvdPkFromHl:vector(packetBytes) ETV
attr interpolationmode none
attr recordingmode vector(packetBytes)
attr source packetReceivedFromUpper
attr title "packets received from higher layer, packetBytes"
vector 111 WSN_EnergyEfficient.sensorNode2.lo[0].lo passedUpPk:vector(packetBytes) ETV
attr interpolationmode none
attr recordingmode vector(packetBytes)
attr source packetSentToUpper
attr title "packets passed to higher layer, packetBytes"
vector 112 WSN_EnergyEfficient.sensorNode2.lo[0] packetDropInterfaceDown:vector(packetBytes) ETV
attr interpolationmode none
attr recordingmode vector(packetBytes)
attr source packetDropReasonIsInterfaceDown(packetDropped)
attr title "packet drops: interface down, packetBytes"
vector 113 WSN_EnergyEfficient.sensorNode2.lo[0] packetDropNoCarrier:vector(packetBytes) ETV
attr interpolationmode none
attr recordingmode vector(packetBytes)
attr source packetDropReasonIsNoCarrier(packetDropped)
attr title "packet drops: no carrier, packetBytes"
vector 114 WSN_EnergyEfficient.sensorNode2.wlan[0].queue queueLength:vector ETV
attr autoWarmupFilter false
attr interpolationmode sample-hold
attr recordingmode vector
attr source "warmup(atomic(constant0(packetPushEnded) + count(packetPushStarted) - count(packetPulled) - count(packetRemoved) - count(packetDropped)))"
attr title "queue length"
attr unit pk
vector 115 WSN_EnergyEfficient.sensorNode2.wlan[0].queue queueBitLength:vector ETV
attr autoWarmupFilter false
attr interpolationmode sample-hold
attr recordingmode vector
attr source "warmup(atomic(constant0(packetPushEnded) + sum(packetLength(packetPushStarted)) - sum(packetLength(packetPulled)) - sum(packetLength(packetRemoved)) - sum(packetLength(packetDropped))))"
attr title "queue bit length"
attr unit b
vector 116 WSN_EnergyEfficient.sensorNode2.wlan[0].queue queueingTime:vector ETV
attr interpolationmode none
attr recordingmode vector
attr source queueingTime(packetPulled)
attr title "queueing times"
attr unit s
vector 117 WSN_EnergyEfficient.sensorNode2.wlan[0].queue incomingPacketLengths:vector ETV
attr interpolationmode none
attr recordingmode vector
attr source packetLength(packetPushStarted)
attr title "incoming packet lengths"
attr unit b
vector 118 WSN_EnergyEfficient.sensorNode2.wlan[0].queue incomingDataRate:vector ETV
attr interpolationmode linear
attr recordingmode vector
attr source throughput(packetPushStarted)
attr title "incoming datarate"
attr unit bps
vector 119 WSN_EnergyEfficient.sensorNode2.wlan[0].queue outgoingPacketLengths:vector ETV
attr interpolationmode none
attr recordingmode vector
attr source packetLength(packetPulled)
attr title "outgoing packet lengths"
attr unit b
vector 120 WSN_EnergyEfficient.sensorNode2.wlan[0].queue outgoingDataRate:vector ETV
attr interpolationmode linear
attr recordingmode vector
attr source throughput(packetPulled)
attr title "outgoing datarate"
attr unit bps
vector 121 WSN_EnergyEfficient.sensorNode2.wlan[0].queue droppedPacketLengthsQueueOverflow:vector ETV
attr interpolationmode none
attr recordingmode vector
attr source packetLength(packetDropReasonIsQueueOverflow(packetDropped))
attr title "dropped packet lengths: queue overflow"
attr unit b
vector 122 WSN_EnergyEfficient.sensorNode2.wlan[0].queue flowQueueingTime:vector ETV
attr interpolationmode none
attr recordingmode vector
attr source queueingTime(demuxFlow(packetPulled))
attr title "flow queueing times"
attr unit s
vector 123 WSN_EnergyEfficient.sensorNode2.wlan[0].queue flowIncomingDataRate:vector ETV
attr interpolationmode linear
attr recordingmode vector
attr source throughput(flowPacketLength(demuxFlow(packetPushStarted)))
attr title "flow specific incoming data rate"
attr unit bps
vector 124 WSN_EnergyEfficient.sensorNode2.wlan[0].queue flowOutgoingDataRate:vector ETV
attr interpolationmode linear
attr recordingmode vector
attr source throughput(flowPacketLength(demuxFlow(packetPulled)))
attr title "flow specific outgoing data rate"
attr unit bps
vector 125 WSN_EnergyEfficient.sensorNode2.wlan[0].mac packetDropNotAddressToUs:vector(packetBytes) ETV
attr interpolationmode none
attr recordingmode vector(packetBytes)
attr source packetDropReasonIsNotAddressedToUs(packetDropped)
attr title "packet drop: not addressed to us, packetBytes"
vector 126 WSN_EnergyEfficient.sensorNode2.wlan[0].mac packetDropIncorrectlyReceived:vector(packetBytes) ETV
attr interpolationmode none
attr recordingmode vector(packetBytes)
attr source packetDropReasonIsIncorrectlyReceived(packetDropped)
attr title "packet drop: incorrectly received, packetBytes"
vector 127 WSN_EnergyEfficient.sensorNode2.wlan[0].mac packetDropQueueOverflow:vector(packetBytes) ETV
attr interpolationmode none
attr recordingmode vector(packetBytes)
attr source packetDropReasonIsQueueOverflow(packetDropped)
attr title "packet drop: queue overflow, packetBytes"
vector 128 WSN_EnergyEfficient.sensorNode2.wlan[0].mac packetDropRetryLimitReached:vector(packetBytes) ETV
attr interpolationmode none
attr recordingmode vector(packetBytes)
attr source packetDropReasonIsRetryLimitReached(packetDropped)
attr title "packet drop: retry limit reached, packetBytes"
vector 129 WSN_EnergyEfficient.sensorNode2.wlan[0].mac packetDropBackoffLimitReached:vector(packetBytes) ETV
attr interpolationmode none
attr recordingmode vector(packetBytes)
attr source packetDropReasonIsCongestion(packetDropped)
attr title "packet drop: backoff limit reached, packetBytes"
vector 130 WSN_EnergyEfficient.sensorNode2.wlan[0].radio.energyConsumer powerConsumption:vector ETV
attr interpolationmode sample-hold
attr recordingmode vector
attr source powerConsumptionChanged
attr title "Power consumption"
attr unit W
vector 131 WSN_EnergyEfficient.sensorNode2.wlan[0].radio radioMode:vector ETV
attr interpolationmode sample-hold
attr recordingmode vector
attr source radioModeChanged
attr title "Radio mode"
vector 132 WSN_EnergyEfficient.sensorNode2.wlan[0].radio receptionState:vector ETV
attr interpolationmode sample-hold
attr recordingmode vector
attr source receptionStateChanged
attr title "Radio reception state"
vector 133 WSN_EnergyEfficient.sensorNode2.wlan[0].radio transmissionState:vector ETV
attr interpolationmode sample-hold
attr recordingmode vector
attr source transmissionStateChanged
attr title "Radio transmission state"
vector 134 WSN_EnergyEfficient.sensorNode2.wlan[0] packetDropInterfaceDown:vector(packetBytes) ETV
attr interpolationmode none
attr recordingmode vector(packetBytes)
attr source packetDropReasonIsInterfaceDown(packetDropped)
attr title "packet drops: interface down, packetBytes"
vector 135 WSN_EnergyEfficient.sensorNode2.wlan[0] packetDropNoCarrier:vector(packetBytes) ETV
attr interpolationmode none
attr recordingmode vector(packetBytes)
attr source packetDropReasonIsNoCarrier(packetDropped)
attr title "packet drops: no carrier, packetBytes"
vector 136 WSN_EnergyEfficient.sensorNode2.ipv4.ip packetDropAddressResolutionFailed:vector(packetBytes) ETV
attr interpolationmode none
attr recordingmode vector(packetBytes)
attr source packetDropReasonIsAddressResolutionFailed(packetDropped)
attr title "packet drop: address resolution failed, packetBytes"
vector 137 WSN_EnergyEfficient.sensorNode2.ipv4.ip packetDropHopLimitReached:vector(packetBytes) ETV
attr interpolationmode none
attr recordingmode vector(packetBytes)
attr source packetDropReasonIsHopLimitReached(packetDropped)
attr title "packet drop: hop limit reached, packetBytes"
vector 138 WSN_EnergyEfficient.sensorNode2.ipv4.ip packetDropForwardingDisabled:vector(packetBytes) ETV
attr interpolationmode none
attr recordingmode vector(packetBytes)
attr source packetDropReasonIsForwardingDisabled(packetDropped)
attr title "packet drop: forwarding disabled, packetBytes"
vector 139 WSN_EnergyEfficient.sensorNode2.ipv4.ip packetDropNoInterfaceFound:vector(packetBytes) ETV
attr interpolationmode none
attr recordingmode vector(packetBytes)
attr source packetDropReasonIsNoInterfaceFound(packetDropped)
attr title "packet drop: no interface found, packetBytes"
vector 140 WSN_EnergyEfficient.sensorNode2.ipv4.ip packetDropNoRouteFound:vector(packetBytes) ETV
attr interpolationmode none
attr recordingmode vector(packetBytes)
attr source packetDropReasonIsNoRouteFound(packetDropped)
attr title "packet drop: no route found, packetBytes"
vector 141 WSN_EnergyEfficient.sensorNode2.ipv4.ip packetDropUndefined:vector(packetBytes) ETV
attr interpolationmode none
attr recordingmode vector(packetBytes)
attr source packetDropReasonIsUndefined(packetDropped)
attr title "packet drop: undefined, packetBytes"
vector 142 WSN_EnergyEfficient.sensorNode2.ipv4.arp arpRequestSent:vector(packetBytes) ETV
attr recordingmode vector(packetBytes)
attr source arpRequestSent
attr title "ARP request sent, packetBytes"
vector 143 WSN_EnergyEfficient.sensorNode2.ipv4.arp arpReplySent:vector(packetBytes) ETV
attr recordingmode vector(packetBytes)
attr source arpReplySent
attr title "ARP replies sent, packetBytes"
vector 144 WSN_EnergyEfficient.sensorNode2.udp packetSent:vector(packetBytes) ETV
attr interpolationmode none
attr recordingmode vector(packetBytes)
attr source packetSent
attr title "packets sent, packetBytes"
vector 145 WSN_EnergyEfficient.sensorNode2.udp packetReceived:vector(packetBytes) ETV
attr interpolationmode none
attr recordingmode vector(packetBytes)
attr source packetReceived
attr title "packets received, packetBytes"
vector 146 WSN_EnergyEfficient.sensorNode2.udp passedUpPk:vector(count) ETV
attr interpolationmode none
attr recordingmode vector(count)
attr source packetSentToUpper
attr title "packets passed up, count"
vector 147 WSN_EnergyEfficient.sensorNode2.udp droppedPkWrongPort:vector(count) ETV
attr interpolationmode none
attr recordingmode vector(count)
attr source packetDropReasonIsNoPortFound(packetDropped)
attr title "packets dropped (wrong port), count"
vector 148 WSN_EnergyEfficient.sensorNode2.udp droppedPkBadChecksum:vector(count) ETV
attr interpolationmode none
attr recordingmode vector(count)
attr source packetDropReasonIsIncorrectlyReceived(packetDropped)
attr title "packets dropped (checksum error), count"
vector 149 WSN_EnergyEfficient.sensorNode2.app[0] rtt:vector ETV
attr interpolationmode none
attr recordingmode vector
attr title "ping round-trip time"
attr unit s
vector 150 WSN_EnergyEfficient.sensorNode2.app[0] numLost:vector ETV
attr interpolationmode none
attr recordingmode vector
attr title "pings lost"
vector 151 WSN_EnergyEfficient.sensorNode2.app[0] numOutOfOrderArrivals:vector ETV
attr interpolationmode none
attr recordingmode vector
attr title "ping out-of-order arrivals"
vector 152 WSN_EnergyEfficient.sensorNode2.app[0] pingTxSeq:vector ETV
attr interpolationmode none
attr recordingmode vector
attr title "ping tx seq"
vector 153 WSN_EnergyEfficient.sensorNode2.app[0] pingRxSeq:vector ETV
attr interpolationmode none
attr recordingmode vector
attr title "ping rx seq"
vector 154 WSN_EnergyEfficient.sensorNode2.app[1] packetReceived:vector(packetBytes) ETV
attr interpolationmode none
attr recordingmode vector(packetBytes)
attr source packetReceived
attr title "packets received, packetBytes"
vector 155 WSN_EnergyEfficient.sensorNode2.app[1] throughput:vector ETV
attr recordingmode vector
attr source throughput(packetReceived)
attr title throughput
attr unit bps
vector 156 WSN_EnergyEfficient.sensorNode2.app[1] packetSent:vector(packetBytes) ETV
attr interpolationmode none
attr recordingmode vector(packetBytes)
attr source packetSent
attr title "packets sent, packetBytes"
vector 157 WSN_EnergyEfficient.sensorNode2.app[1] rcvdPkLifetime:vector ETV
attr interpolationmode none
attr recordingmode vector
attr source dataAge(packetReceived)
attr title "received packet lifetime"
attr unit s
vector 158 WSN_EnergyEfficient.sensorNode2.app[1] rcvdPkSeqNo:vector ETV
attr interpolationmode none
attr recordingmode vector
attr source appPkSeqNo(packetReceived)
attr title "received packet sequence number"
vector 159 WSN_EnergyEfficient.sensorNode3.energyStorage powerConsumption:vector ETV
attr interpolationmode sample-hold
attr recordingmode vector
attr source powerConsumptionChanged
attr title "Power consumption"
attr unit W
vector 160 WSN_EnergyEfficient.sensorNode3.energyStorage powerGeneration:vector ETV
attr interpolationmode sample-hold
attr recordingmode vector
attr source powerGenerationChanged
attr title "Power generation"
attr unit W
vector 161 WSN_EnergyEfficient.sensorNode3.energyStorage residualEnergyCapacity:vector ETV
attr interpolationmode linear
attr recordingmode vector
attr source residualEnergyCapacityChanged
attr title "Residual energy capacity"
attr unit J
vector 162 WSN_EnergyEfficient.sensorNode3.energyGenerator powerGeneration:vector ETV
attr interpolationmode sample-hold
attr recordingmode vector
attr source powerGenerationChanged
attr title "Power generation"
attr unit W
vector 163 WSN_EnergyEfficient.sensorNode3.lo[0].lo rcvdPkFromHl:vector(packetBytes) ETV
attr interpolationmode none
attr recordingmode vector(packetBytes)
attr source packetReceivedFromUpper
attr title "packets received from higher layer, packetBytes"
vector 164 WSN_EnergyEfficient.sensorNode3.lo[0].lo passedUpPk:vector(packetBytes) ETV
attr interpolationmode none
attr recordingmode vector(packetBytes)
attr source packetSentToUpper
attr title "packets passed to higher layer, packetBytes"
vector 165 WSN_EnergyEfficient.sensorNode3.lo[0] packetDropInterfaceDown:vector(packetBytes) ETV
attr interpolationmode none
attr recordingmode vector(packetBytes)
attr source packetDropReasonIsInterfaceDown(packetDropped)
attr title "packet drops: interface down, packetBytes"
vector 166 WSN_EnergyEfficient.sensorNode3.lo[0] packetDropNoCarrier:vector(packetBytes) ETV
attr interpolationmode none
attr recordingmode vector(packetBytes)
attr source packetDropReasonIsNoCarrier(packetDropped)
attr title "packet drops: no carrier, packetBytes"
vector 167 WSN_EnergyEfficient.sensorNode3.wlan[0].queue queueLength:vector ETV
attr autoWarmupFilter false
attr interpolationmode sample-hold
attr recordingmode vector
attr source "warmup(atomic(constant0(packetPushEnded) + count(packetPushStarted) - count(packetPulled) - count(packetRemoved) - count(packetDropped)))"
attr title "queue length"
attr unit pk
vector 168 WSN_EnergyEfficient.sensorNode3.wlan[0].queue queueBitLength:vector ETV
attr autoWarmupFilter false
attr interpolationmode sample-hold
attr recordingmode vector
attr source "warmup(atomic(constant0(packetPushEnded) + sum(packetLength(packetPushStarted)) - sum(packetLength(packetPulled)) - sum(packetLength(packetRemoved)) - sum(packetLength(packetDropped))))"
attr title "queue bit length"
attr unit b
vector 169 WSN_EnergyEfficient.sensorNode3.wlan[0].queue queueingTime:vector ETV
attr interpolationmode none
attr recordingmode vector
attr source queueingTime(packetPulled)
attr title "queueing times"
attr unit s
vector 170 WSN_EnergyEfficient.sensorNode3.wlan[0].queue incomingPacketLengths:vector ETV
attr interpolationmode none
attr recordingmode vector
attr source packetLength(packetPushStarted)
attr title "incoming packet lengths"
attr unit b
vector 171 WSN_EnergyEfficient.sensorNode3.wlan[0].queue incomingDataRate:vector ETV
attr interpolationmode linear
attr recordingmode vector
attr source throughput(packetPushStarted)
attr title "incoming datarate"
attr unit bps
vector 172 WSN_EnergyEfficient.sensorNode3.wlan[0].queue outgoingPacketLengths:vector ETV
attr interpolationmode none
attr recordingmode vector
attr source packetLength(packetPulled)
attr title "outgoing packet lengths"
attr unit b
vector 173 WSN_EnergyEfficient.sensorNode3.wlan[0].queue outgoingDataRate:vector ETV
attr interpolationmode linear
attr recordingmode vector
attr source throughput(packetPulled)
attr title "outgoing datarate"
attr unit bps
vector 174 WSN_EnergyEfficient.sensorNode3.wlan[0].queue droppedPacketLengthsQueueOverflow:vector ETV
attr interpolationmode none
attr recordingmode vector
attr source packetLength(packetDropReasonIsQueueOverflow(packetDropped))
attr title "dropped packet lengths: queue overflow"
attr unit b
vector 175 WSN_EnergyEfficient.sensorNode3.wlan[0].queue flowQueueingTime:vector ETV
attr interpolationmode none
attr recordingmode vector
attr source queueingTime(demuxFlow(packetPulled))
attr title "flow queueing times"
attr unit s
vector 176 WSN_EnergyEfficient.sensorNode3.wlan[0].queue flowIncomingDataRate:vector ETV
attr interpolationmode linear
attr recordingmode vector
attr source throughput(flowPacketLength(demuxFlow(packetPushStarted)))
attr title "flow specific incoming data rate"
attr unit bps
vector 177 WSN_EnergyEfficient.sensorNode3.wlan[0].queue flowOutgoingDataRate:vector ETV
attr interpolationmode linear
attr recordingmode vector
attr source throughput(flowPacketLength(demuxFlow(packetPulled)))
attr title "flow specific outgoing data rate"
attr unit bps
vector 178 WSN_EnergyEfficient.sensorNode3.wlan[0].mac packetDropNotAddressToUs:vector(packetBytes) ETV
attr interpolationmode none
attr recordingmode vector(packetBytes)
attr source packetDropReasonIsNotAddressedToUs(packetDropped)
attr title "packet drop: not addressed to us, packetBytes"
vector 179 WSN_EnergyEfficient.sensorNode3.wlan[0].mac packetDropIncorrectlyReceived:vector(packetBytes) ETV
attr interpolationmode none
attr recordingmode vector(packetBytes)
attr source packetDropReasonIsIncorrectlyReceived(packetDropped)
attr title "packet drop: incorrectly received, packetBytes"
vector 180 WSN_EnergyEfficient.sensorNode3.wlan[0].mac packetDropQueueOverflow:vector(packetBytes) ETV
attr interpolationmode none
attr recordingmode vector(packetBytes)
attr source packetDropReasonIsQueueOverflow(packetDropped)
attr title "packet drop: queue overflow, packetBytes"
vector 181 WSN_EnergyEfficient.sensorNode3.wlan[0].mac packetDropRetryLimitReached:vector(packetBytes) ETV
attr interpolationmode none
attr recordingmode vector(packetBytes)
attr source packetDropReasonIsRetryLimitReached(packetDropped)
attr title "packet drop: retry limit reached, packetBytes"
vector 182 WSN_EnergyEfficient.sensorNode3.wlan[0].mac packetDropBackoffLimitReached:vector(packetBytes) ETV
attr interpolationmode none
attr recordingmode vector(packetBytes)
attr source packetDropReasonIsCongestion(packetDropped)
attr title "packet drop: backoff limit reached, packetBytes"
vector 183 WSN_EnergyEfficient.sensorNode3.wlan[0].radio.energyConsumer powerConsumption:vector ETV
attr interpolationmode sample-hold
attr recordingmode vector
attr source powerConsumptionChanged
attr title "Power consumption"
attr unit W
vector 184 WSN_EnergyEfficient.sensorNode3.wlan[0].radio radioMode:vector ETV
attr interpolationmode sample-hold
attr recordingmode vector
attr source radioModeChanged
attr title "Radio mode"
vector 185 WSN_EnergyEfficient.sensorNode3.wlan[0].radio receptionState:vector ETV
attr interpolationmode sample-hold
attr recordingmode vector
attr source receptionStateChanged
attr title "Radio reception state"
vector 186 WSN_EnergyEfficient.sensorNode3.wlan[0].radio transmissionState:vector ETV
attr interpolationmode sample-hold
attr recordingmode vector
attr source transmissionStateChanged
attr title "Radio transmission state"
vector 187 WSN_EnergyEfficient.sensorNode3.wlan[0] packetDropInterfaceDown:vector(packetBytes) ETV
attr interpolationmode none
attr recordingmode vector(packetBytes)
attr source packetDropReasonIsInterfaceDown(packetDropped)
attr title "packet drops: interface down, packetBytes"
vector 188 WSN_EnergyEfficient.sensorNode3.wlan[0] packetDropNoCarrier:vector(packetBytes) ETV
attr interpolationmode none
attr recordingmode vector(packetBytes)
attr source packetDropReasonIsNoCarrier(packetDropped)
attr title "packet drops: no carrier, packetBytes"
vector 189 WSN_EnergyEfficient.sensorNode3.ipv4.ip packetDropAddressResolutionFailed:vector(packetBytes) ETV
attr interpolationmode none
attr recordingmode vector(packetBytes)
attr source packetDropReasonIsAddressResolutionFailed(packetDropped)
attr title "packet drop: address resolution failed, packetBytes"
vector 190 WSN_EnergyEfficient.sensorNode3.ipv4.ip packetDropHopLimitReached:vector(packetBytes) ETV
attr interpolationmode none
attr recordingmode vector(packetBytes)
attr source packetDropReasonIsHopLimitReached(packetDropped)
attr title "packet drop: hop limit reached, packetBytes"
vector 191 WSN_EnergyEfficient.sensorNode3.ipv4.ip packetDropForwardingDisabled:vector(packetBytes) ETV
attr interpolationmode none
attr recordingmode vector(packetBytes)
attr source packetDropReasonIsForwardingDisabled(packetDropped)
attr title "packet drop: forwarding disabled, packetBytes"
vector 192 WSN_EnergyEfficient.sensorNode3.ipv4.ip packetDropNoInterfaceFound:vector(packetBytes) ETV
attr interpolationmode none
attr recordingmode vector(packetBytes)
attr source packetDropReasonIsNoInterfaceFound(packetDropped)
attr title "packet drop: no interface found, packetBytes"
vector 193 WSN_EnergyEfficient.sensorNode3.ipv4.ip packetDropNoRouteFound:vector(packetBytes) ETV
attr interpolationmode none
attr recordingmode vector(packetBytes)
attr source packetDropReasonIsNoRouteFound(packetDropped)
attr title "packet drop: no route found, packetBytes"
vector 194 WSN_EnergyEfficient.sensorNode3.ipv4.ip packetDropUndefined:vector(packetBytes) ETV
attr interpolationmode none
attr recordingmode vector(packetBytes)
attr source packetDropReasonIsUndefined(packetDropped)
attr title "packet drop: undefined, packetBytes"
vector 195 WSN_EnergyEfficient.sensorNode3.ipv4.arp arpRequestSent:vector(packetBytes) ETV
attr recordingmode vector(packetBytes)
attr source arpRequestSent
attr title "ARP request sent, packetBytes"
vector 196 WSN_EnergyEfficient.sensorNode3.ipv4.arp arpReplySent:vector(packetBytes) ETV
attr recordingmode vector(packetBytes)
attr source arpReplySent
attr title "ARP replies sent, packetBytes"
vector 197 WSN_EnergyEfficient.sensorNode3.udp packetSent:vector(packetBytes) ETV
attr interpolationmode none
attr recordingmode vector(packetBytes)
attr source packetSent
attr title "packets sent, packetBytes"
vector 198 WSN_EnergyEfficient.sensorNode3.udp packetReceived:vector(packetBytes) ETV
attr interpolationmode none
attr recordingmode vector(packetBytes)
attr source packetReceived
attr title "packets received, packetBytes"
vector 199 WSN_EnergyEfficient.sensorNode3.udp passedUpPk:vector(count) ETV
attr interpolationmode none
attr recordingmode vector(count)
attr source packetSentToUpper
attr title "packets passed up, count"
vector 200 WSN_EnergyEfficient.sensorNode3.udp droppedPkWrongPort:vector(count) ETV
attr interpolationmode none
attr recordingmode vector(count)
attr source packetDropReasonIsNoPortFound(packetDropped)
attr title "packets dropped (wrong port), count"
vector 201 WSN_EnergyEfficient.sensorNode3.udp droppedPkBadChecksum:vector(count) ETV
attr interpolationmode none
attr recordingmode vector(count)
attr source packetDropReasonIsIncorrectlyReceived(packetDropped)
attr title "packets dropped (checksum error), count"
vector 202 WSN_EnergyEfficient.sensorNode3.app[0] rtt:vector ETV
attr interpolationmode none
attr recordingmode vector
attr title "ping round-trip time"
attr unit s
vector 203 WSN_EnergyEfficient.sensorNode3.app[0] numLost:vector ETV
attr interpolationmode none
attr recordingmode vector
attr title "pings lost"
vector 204 WSN_EnergyEfficient.sensorNode3.app[0] numOutOfOrderArrivals:vector ETV
attr interpolationmode none
attr recordingmode vector
attr title "ping out-of-order arrivals"
vector 205 WSN_EnergyEfficient.sensorNode3.app[0] pingTxSeq:vector ETV
attr interpolationmode none
attr recordingmode vector
attr title "ping tx seq"
vector 206 WSN_EnergyEfficient.sensorNode3.app[0] pingRxSeq:vector ETV
attr interpolationmode none
attr recordingmode vector
attr title "ping rx seq"
vector 207 WSN_EnergyEfficient.sensorNode3.app[1] packetReceived:vector(packetBytes) ETV
attr interpolationmode none
attr recordingmode vector(packetBytes)
attr source packetReceived
attr title "packets received, packetBytes"
vector 208 WSN_EnergyEfficient.sensorNode3.app[1] throughput:vector ETV
attr recordingmode vector
attr source throughput(packetReceived)
attr title throughput
attr unit bps
vector 209 WSN_EnergyEfficient.sensorNode3.app[1] packetSent:vector(packetBytes) ETV
attr interpolationmode none
attr recordingmode vector(packetBytes)
attr source packetSent
attr title "packets sent, packetBytes"
vector 210 WSN_EnergyEfficient.sensorNode3.app[1] rcvdPkLifetime:vector ETV
attr interpolationmode none
attr recordingmode vector
attr source dataAge(packetReceived)
attr title "received packet lifetime"
attr unit s
vector 211 WSN_EnergyEfficient.sensorNode3.app[1] rcvdPkSeqNo:vector ETV
attr interpolationmode none
attr recordingmode vector
attr source appPkSeqNo(packetReceived)
attr title "received packet sequence number"
vector 212 WSN_EnergyEfficient.sensorNode4.energyStorage powerConsumption:vector ETV
attr interpolationmode sample-hold
attr recordingmode vector
attr source powerConsumptionChanged
attr title "Power consumption"
attr unit W
vector 213 WSN_EnergyEfficient.sensorNode4.energyStorage powerGeneration:vector ETV
attr interpolationmode sample-hold
attr recordingmode vector
attr source powerGenerationChanged
attr title "Power generation"
attr unit W
vector 214 WSN_EnergyEfficient.sensorNode4.energyStorage residualEnergyCapacity:vector ETV
attr interpolationmode linear
attr recordingmode vector
attr source residualEnergyCapacityChanged
attr title "Residual energy capacity"
attr unit J
vector 215 WSN_EnergyEfficient.sensorNode4.energyGenerator powerGeneration:vector ETV
attr interpolationmode sample-hold
attr recordingmode vector
attr source powerGenerationChanged
attr title "Power generation"
attr unit W
vector 216 WSN_EnergyEfficient.sensorNode4.lo[0].lo rcvdPkFromHl:vector(packetBytes) ETV
attr interpolationmode none
attr recordingmode vector(packetBytes)
attr source packetReceivedFromUpper
attr title "packets received from higher layer, packetBytes"
vector 217 WSN_EnergyEfficient.sensorNode4.lo[0].lo passedUpPk:vector(packetBytes) ETV
attr interpolationmode none
attr recordingmode vector(packetBytes)
attr source packetSentToUpper
attr title "packets passed to higher layer, packetBytes"
vector 218 WSN_EnergyEfficient.sensorNode4.lo[0] packetDropInterfaceDown:vector(packetBytes) ETV
attr interpolationmode none
attr recordingmode vector(packetBytes)
attr source packetDropReasonIsInterfaceDown(packetDropped)
attr title "packet drops: interface down, packetBytes"
vector 219 WSN_EnergyEfficient.sensorNode4.lo[0] packetDropNoCarrier:vector(packetBytes) ETV
attr interpolationmode none
attr recordingmode vector(packetBytes)
attr source packetDropReasonIsNoCarrier(packetDropped)
attr title "packet drops: no carrier, packetBytes"
vector 220 WSN_EnergyEfficient.sensorNode4.wlan[0].queue queueLength:vector ETV
attr autoWarmupFilter false
attr interpolationmode sample-hold
attr recordingmode vector
attr source "warmup(atomic(constant0(packetPushEnded) + count(packetPushStarted) - count(packetPulled) - count(packetRemoved) - count(packetDropped)))"
attr title "queue length"
attr unit pk
vector 221 WSN_EnergyEfficient.sensorNode4.wlan[0].queue queueBitLength:vector ETV
attr autoWarmupFilter false
attr interpolationmode sample-hold
attr recordingmode vector
attr source "warmup(atomic(constant0(packetPushEnded) + sum(packetLength(packetPushStarted)) - sum(packetLength(packetPulled)) - sum(packetLength(packetRemoved)) - sum(packetLength(packetDropped))))"
attr title "queue bit length"
attr unit b
vector 222 WSN_EnergyEfficient.sensorNode4.wlan[0].queue queueingTime:vector ETV
attr interpolationmode none
attr recordingmode vector
attr source queueingTime(packetPulled)
attr title "queueing times"
attr unit s
vector 223 WSN_EnergyEfficient.sensorNode4.wlan[0].queue incomingPacketLengths:vector ETV
attr interpolationmode none
attr recordingmode vector
attr source packetLength(packetPushStarted)
attr title "incoming packet lengths"
attr unit b
vector 224 WSN_EnergyEfficient.sensorNode4.wlan[0].queue incomingDataRate:vector ETV
attr interpolationmode linear
attr recordingmode vector
attr source throughput(packetPushStarted)
attr title "incoming datarate"
attr unit bps
vector 225 WSN_EnergyEfficient.sensorNode4.wlan[0].queue outgoingPacketLengths:vector ETV
attr interpolationmode none
attr recordingmode vector
attr source packetLength(packetPulled)
attr title "outgoing packet lengths"
attr unit b
vector 226 WSN_EnergyEfficient.sensorNode4.wlan[0].queue outgoingDataRate:vector ETV
attr interpolationmode linear
attr recordingmode vector
attr source throughput(packetPulled)
attr title "outgoing datarate"
attr unit bps
vector 227 WSN_EnergyEfficient.sensorNode4.wlan[0].queue droppedPacketLengthsQueueOverflow:vector ETV
attr interpolationmode none
attr recordingmode vector
attr source packetLength(packetDropReasonIsQueueOverflow(packetDropped))
attr title "dropped packet lengths: queue overflow"
attr unit b
vector 228 WSN_EnergyEfficient.sensorNode4.wlan[0].queue flowQueueingTime:vector ETV
attr interpolationmode none
attr recordingmode vector
attr source queueingTime(demuxFlow(packetPulled))
attr title "flow queueing times"
attr unit s
vector 229 WSN_EnergyEfficient.sensorNode4.wlan[0].queue flowIncomingDataRate:vector ETV
attr interpolationmode linear
attr recordingmode vector
attr source throughput(flowPacketLength(demuxFlow(packetPushStarted)))
attr title "flow specific incoming data rate"
attr unit bps
vector 230 WSN_EnergyEfficient.sensorNode4.wlan[0].queue flowOutgoingDataRate:vector ETV
attr interpolationmode linear
attr recordingmode vector
attr source throughput(flowPacketLength(demuxFlow(packetPulled)))
attr title "flow specific outgoing data rate"
attr unit bps
vector 231 WSN_EnergyEfficient.sensorNode4.wlan[0].mac packetDropNotAddressToUs:vector(packetBytes) ETV
attr interpolationmode none
attr recordingmode vector(packetBytes)
attr source packetDropReasonIsNotAddressedToUs(packetDropped)
attr title "packet drop: not addressed to us, packetBytes"
vector 232 WSN_EnergyEfficient.sensorNode4.wlan[0].mac packetDropIncorrectlyReceived:vector(packetBytes) ETV
attr interpolationmode none
attr recordingmode vector(packetBytes)
attr source packetDropReasonIsIncorrectlyReceived(packetDropped)
attr title "packet drop: incorrectly received, packetBytes"
vector 233 WSN_EnergyEfficient.sensorNode4.wlan[0].mac packetDropQueueOverflow:vector(packetBytes) ETV
attr interpolationmode none
attr recordingmode vector(packetBytes)
attr source packetDropReasonIsQueueOverflow(packetDropped)
attr title "packet drop: queue overflow, packetBytes"
vector 234 WSN_EnergyEfficient.sensorNode4.wlan[0].mac packetDropRetryLimitReached:vector(packetBytes) ETV
attr interpolationmode none
attr recordingmode vector(packetBytes)
attr source packetDropReasonIsRetryLimitReached(packetDropped)
attr title "packet drop: retry limit reached, packetBytes"
vector 235 WSN_EnergyEfficient.sensorNode4.wlan[0].mac packetDropBackoffLimitReached:vector(packetBytes) ETV
attr interpolationmode none
attr recordingmode vector(packetBytes)
attr source packetDropReasonIsCongestion(packetDropped)
attr title "packet drop: backoff limit reached, packetBytes"
vector 236 WSN_EnergyEfficient.sensorNode4.wlan[0].radio.energyConsumer powerConsumption:vector ETV
attr interpolationmode sample-hold
attr recordingmode vector
attr source powerConsumptionChanged
attr title "Power consumption"
attr unit W
vector 237 WSN_EnergyEfficient.sensorNode4.wlan[0].radio radioMode:vector ETV
attr interpolationmode sample-hold
attr recordingmode vector
attr source radioModeChanged
attr title "Radio mode"
vector 238 WSN_EnergyEfficient.sensorNode4.wlan[0].radio receptionState:vector ETV
attr interpolationmode sample-hold
attr recordingmode vector
attr source receptionStateChanged
attr title "Radio reception state"
vector 239 WSN_EnergyEfficient.sensorNode4.wlan[0].radio transmissionState:vector ETV
attr interpolationmode sample-hold
attr recordingmode vector
attr source transmissionStateChanged
attr title "Radio transmission state"
vector 240 WSN_EnergyEfficient.sensorNode4.wlan[0] packetDropInterfaceDown:vector(packetBytes) ETV
attr interpolationmode none
attr recordingmode vector(packetBytes)
attr source packetDropReasonIsInterfaceDown(packetDropped)
attr title "packet drops: interface down, packetBytes"
vector 241 WSN_EnergyEfficient.sensorNode4.wlan[0] packetDropNoCarrier:vector(packetBytes) ETV
attr interpolationmode none
attr recordingmode vector(packetBytes)
attr source packetDropReasonIsNoCarrier(packetDropped)
attr title "packet drops: no carrier, packetBytes"
vector 242 WSN_EnergyEfficient.sensorNode4.ipv4.ip packetDropAddressResolutionFailed:vector(packetBytes) ETV
attr interpolationmode none
attr recordingmode vector(packetBytes)
attr source packetDropReasonIsAddressResolutionFailed(packetDropped)
attr title "packet drop: address resolution failed, packetBytes"
vector 243 WSN_EnergyEfficient.sensorNode4.ipv4.ip packetDropHopLimitReached:vector(packetBytes) ETV
attr interpolationmode none
attr recordingmode vector(packetBytes)
attr source packetDropReasonIsHopLimitReached(packetDropped)
attr title "packet drop: hop limit reached, packetBytes"
vector 244 WSN_EnergyEfficient.sensorNode4.ipv4.ip packetDropForwardingDisabled:vector(packetBytes) ETV
attr interpolationmode none
attr recordingmode vector(packetBytes)
attr source packetDropReasonIsForwardingDisabled(packetDropped)
attr title "packet drop: forwarding disabled, packetBytes"
vector 245 WSN_EnergyEfficient.sensorNode4.ipv4.ip packetDropNoInterfaceFound:vector(packetBytes) ETV
attr interpolationmode none
attr recordingmode vector(packetBytes)
attr source packetDropReasonIsNoInterfaceFound(packetDropped)
attr title "packet drop: no interface found, packetBytes"
vector 246 WSN_EnergyEfficient.sensorNode4.ipv4.ip packetDropNoRouteFound:vector(packetBytes) ETV
attr interpolationmode none
attr recordingmode vector(packetBytes)
attr source packetDropReasonIsNoRouteFound(packetDropped)
attr title "packet drop: no route found, packetBytes"
vector 247 WSN_EnergyEfficient.sensorNode4.ipv4.ip packetDropUndefined:vector(packetBytes) ETV
attr interpolationmode none
attr recordingmode vector(packetBytes)
attr source packetDropReasonIsUndefined(packetDropped)
attr title "packet drop: undefined, packetBytes"
vector 248 WSN_EnergyEfficient.sensorNode4.ipv4.arp arpRequestSent:vector(packetBytes) ETV
attr recordingmode vector(packetBytes)
attr source arpRequestSent
attr title "ARP request sent, packetBytes"
vector 249 WSN_EnergyEfficient.sensorNode4.ipv4.arp arpReplySent:vector(packetBytes) ETV
attr recordingmode vector(packetBytes)
attr source arpReplySent
attr title "ARP replies sent, packetBytes"
vector 250 WSN_EnergyEfficient.sensorNode4.udp packetSent:vector(packetBytes) ETV
attr interpolationmode none
attr recordingmode vector(packetBytes)
attr source packetSent
attr title "packets sent, packetBytes"
vector 251 WSN_EnergyEfficient.sensorNode4.udp packetReceived:vector(packetBytes) ETV
attr interpolationmode none
attr recordingmode vector(packetBytes)
attr source packetReceived
attr title "packets received, packetBytes"
vector 252 WSN_EnergyEfficient.sensorNode4.udp passedUpPk:vector(count) ETV
attr interpolationmode none
attr recordingmode vector(count)
attr source packetSentToUpper
attr title "packets passed up, count"
vector 253 WSN_EnergyEfficient.sensorNode4.udp droppedPkWrongPort:vector(count) ETV
attr interpolationmode none
attr recordingmode vector(count)
attr source packetDropReasonIsNoPortFound(packetDropped)
attr title "packets dropped (wrong port), count"
vector 254 WSN_EnergyEfficient.sensorNode4.udp droppedPkBadChecksum:vector(count) ETV
attr interpolationmode none
attr recordingmode vector(count)
attr source packetDropReasonIsIncorrectlyReceived(packetDropped)
attr title "packets dropped (checksum error), count"
vector 255 WSN_EnergyEfficient.sensorNode4.app[0] rtt:vector ETV
attr interpolationmode none
attr recordingmode vector
attr title "ping round-trip time"
attr unit s
vector 256 WSN_EnergyEfficient.sensorNode4.app[0] numLost:vector ETV
attr interpolationmode none
attr recordingmode vector
attr title "pings lost"
vector 257 WSN_EnergyEfficient.sensorNode4.app[0] numOutOfOrderArrivals:vector ETV
attr interpolationmode none
attr recordingmode vector
attr title "ping out-of-order arrivals"
vector 258 WSN_EnergyEfficient.sensorNode4.app[0] pingTxSeq:vector ETV
attr interpolationmode none
attr recordingmode vector
attr title "ping tx seq"
vector 259 WSN_EnergyEfficient.sensorNode4.app[0] pingRxSeq:vector ETV
attr interpolationmode none
attr recordingmode vector
attr title "ping rx seq"
vector 260 WSN_EnergyEfficient.sensorNode4.app[1] packetReceived:vector(packetBytes) ETV
attr interpolationmode none
attr recordingmode vector(packetBytes)
attr source packetReceived
attr title "packets received, packetBytes"
vector 261 WSN_EnergyEfficient.sensorNode4.app[1] throughput:vector ETV
attr recordingmode vector
attr source throughput(packetReceived)
attr title throughput
attr unit bps
vector 262 WSN_EnergyEfficient.sensorNode4.app[1] packetSent:vector(packetBytes) ETV
attr interpolationmode none
attr recordingmode vector(packetBytes)
attr source packetSent
attr title "packets sent, packetBytes"
vector 263 WSN_EnergyEfficient.sensorNode4.app[1] rcvdPkLifetime:vector ETV
attr interpolationmode none
attr recordingmode vector
attr source dataAge(packetReceived)
attr title "received packet lifetime"
attr unit s
vector 264 WSN_EnergyEfficient.sensorNode4.app[1] rcvdPkSeqNo:vector ETV
attr interpolationmode none
attr recordingmode vector
attr source appPkSeqNo(packetReceived)
attr title "received packet sequence number"
vector 265 WSN_EnergyEfficient.sensorNode5.energyStorage powerConsumption:vector ETV
attr interpolationmode sample-hold
attr recordingmode vector
attr source powerConsumptionChanged
attr title "Power consumption"
attr unit W
vector 266 WSN_EnergyEfficient.sensorNode5.energyStorage powerGeneration:vector ETV
attr interpolationmode sample-hold
attr recordingmode vector
attr source powerGenerationChanged
attr title "Power generation"
attr unit W
vector 267 WSN_EnergyEfficient.sensorNode5.energyStorage residualEnergyCapacity:vector ETV
attr interpolationmode linear
attr recordingmode vector
attr source residualEnergyCapacityChanged
attr title "Residual energy capacity"
attr unit J
vector 268 WSN_EnergyEfficient.sensorNode5.energyGenerator powerGeneration:vector ETV
attr interpolationmode sample-hold
attr recordingmode vector
attr source powerGenerationChanged
attr title "Power generation"
attr unit W
vector 269 WSN_EnergyEfficient.sensorNode5.lo[0].lo rcvdPkFromHl:vector(packetBytes) ETV
attr interpolationmode none
attr recordingmode vector(packetBytes)
attr source packetReceivedFromUpper
attr title "packets received from higher layer, packetBytes"
vector 270 WSN_EnergyEfficient.sensorNode5.lo[0].lo passedUpPk:vector(packetBytes) ETV
attr interpolationmode none
attr recordingmode vector(packetBytes)
attr source packetSentToUpper
attr title "packets passed to higher layer, packetBytes"
vector 271 WSN_EnergyEfficient.sensorNode5.lo[0] packetDropInterfaceDown:vector(packetBytes) ETV
attr interpolationmode none
attr recordingmode vector(packetBytes)
attr source packetDropReasonIsInterfaceDown(packetDropped)
attr title "packet drops: interface down, packetBytes"
vector 272 WSN_EnergyEfficient.sensorNode5.lo[0] packetDropNoCarrier:vector(packetBytes) ETV
attr interpolationmode none
attr recordingmode vector(packetBytes)
attr source packetDropReasonIsNoCarrier(packetDropped)
attr title "packet drops: no carrier, packetBytes"
vector 273 WSN_EnergyEfficient.sensorNode5.wlan[0].queue queueLength:vector ETV
attr autoWarmupFilter false
attr interpolationmode sample-hold
attr recordingmode vector
attr source "warmup(atomic(constant0(packetPushEnded) + count(packetPushStarted) - count(packetPulled) - count(packetRemoved) - count(packetDropped)))"
attr title "queue length"
attr unit pk
vector 274 WSN_EnergyEfficient.sensorNode5.wlan[0].queue queueBitLength:vector ETV
attr autoWarmupFilter false
attr interpolationmode sample-hold
attr recordingmode vector
attr source "warmup(atomic(constant0(packetPushEnded) + sum(packetLength(packetPushStarted)) - sum(packetLength(packetPulled)) - sum(packetLength(packetRemoved)) - sum(packetLength(packetDropped))))"
attr title "queue bit length"
attr unit b
vector 275 WSN_EnergyEfficient.sensorNode5.wlan[0].queue queueingTime:vector ETV
attr interpolationmode none
attr recordingmode vector
attr source queueingTime(packetPulled)
attr title "queueing times"
attr unit s
vector 276 WSN_EnergyEfficient.sensorNode5.wlan[0].queue incomingPacketLengths:vector ETV
attr interpolationmode none
attr recordingmode vector
attr source packetLength(packetPushStarted)
attr title "incoming packet lengths"
attr unit b
vector 277 WSN_EnergyEfficient.sensorNode5.wlan[0].queue incomingDataRate:vector ETV
attr interpolationmode linear
attr recordingmode vector
attr source throughput(packetPushStarted)
attr title "incoming datarate"
attr unit bps
vector 278 WSN_EnergyEfficient.sensorNode5.wlan[0].queue outgoingPacketLengths:vector ETV
attr interpolationmode none
attr recordingmode vector
attr source packetLength(packetPulled)
attr title "outgoing packet lengths"
attr unit b
vector 279 WSN_EnergyEfficient.sensorNode5.wlan[0].queue outgoingDataRate:vector ETV
attr interpolationmode linear
attr recordingmode vector
attr source throughput(packetPulled)
attr title "outgoing datarate"
attr unit bps
vector 280 WSN_EnergyEfficient.sensorNode5.wlan[0].queue droppedPacketLengthsQueueOverflow:vector ETV
attr interpolationmode none
attr recordingmode vector
attr source packetLength(packetDropReasonIsQueueOverflow(packetDropped))
attr title "dropped packet lengths: queue overflow"
attr unit b
vector 281 WSN_EnergyEfficient.sensorNode5.wlan[0].queue flowQueueingTime:vector ETV
attr interpolationmode none
attr recordingmode vector
attr source queueingTime(demuxFlow(packetPulled))
attr title "flow queueing times"
attr unit s
vector 282 WSN_EnergyEfficient.sensorNode5.wlan[0].queue flowIncomingDataRate:vector ETV
attr interpolationmode linear
attr recordingmode vector
attr source throughput(flowPacketLength(demuxFlow(packetPushStarted)))
attr title "flow specific incoming data rate"
attr unit bps
vector 283 WSN_EnergyEfficient.sensorNode5.wlan[0].queue flowOutgoingDataRate:vector ETV
attr interpolationmode linear
attr recordingmode vector
attr source throughput(flowPacketLength(demuxFlow(packetPulled)))
attr title "flow specific outgoing data rate"
attr unit bps
vector 284 WSN_EnergyEfficient.sensorNode5.wlan[0].mac packetDropNotAddressToUs:vector(packetBytes) ETV
attr interpolationmode none
attr recordingmode vector(packetBytes)
attr source packetDropReasonIsNotAddressedToUs(packetDropped)
attr title "packet drop: not addressed to us, packetBytes"
vector 285 WSN_EnergyEfficient.sensorNode5.wlan[0].mac packetDropIncorrectlyReceived:vector(packetBytes) ETV
attr interpolationmode none
attr recordingmode vector(packetBytes)
attr source packetDropReasonIsIncorrectlyReceived(packetDropped)
attr title "packet drop: incorrectly received, packetBytes"
vector 286 WSN_EnergyEfficient.sensorNode5.wlan[0].mac packetDropQueueOverflow:vector(packetBytes) ETV
attr interpolationmode none
attr recordingmode vector(packetBytes)
attr source packetDropReasonIsQueueOverflow(packetDropped)
attr title "packet drop: queue overflow, packetBytes"
vector 287 WSN_EnergyEfficient.sensorNode5.wlan[0].mac packetDropRetryLimitReached:vector(packetBytes) ETV
attr interpolationmode none
attr recordingmode vector(packetBytes)
attr source packetDropReasonIsRetryLimitReached(packetDropped)
attr title "packet drop: retry limit reached, packetBytes"
vector 288 WSN_EnergyEfficient.sensorNode5.wlan[0].mac packetDropBackoffLimitReached:vector(packetBytes) ETV
attr interpolationmode none
attr recordingmode vector(packetBytes)
attr source packetDropReasonIsCongestion(packetDropped)
attr title "packet drop: backoff limit reached, packetBytes"
vector 289 WSN_EnergyEfficient.sensorNode5.wlan[0].radio.energyConsumer powerConsumption:vector ETV
attr interpolationmode sample-hold
attr recordingmode vector
attr source powerConsumptionChanged
attr title "Power consumption"
attr unit W
vector 290 WSN_EnergyEfficient.sensorNode5.wlan[0].radio radioMode:vector ETV
attr interpolationmode sample-hold
attr recordingmode vector
attr source radioModeChanged
attr title "Radio mode"
vector 291 WSN_EnergyEfficient.sensorNode5.wlan[0].radio receptionState:vector ETV
attr interpolationmode sample-hold
attr recordingmode vector
attr source receptionStateChanged
attr title "Radio reception state"
vector 292 WSN_EnergyEfficient.sensorNode5.wlan[0].radio transmissionState:vector ETV
attr interpolationmode sample-hold
attr recordingmode vector
attr source transmissionStateChanged
attr title "Radio transmission state"
vector 293 WSN_EnergyEfficient.sensorNode5.wlan[0] packetDropInterfaceDown:vector(packetBytes) ETV
attr interpolationmode none
attr recordingmode vector(packetBytes)
attr source packetDropReasonIsInterfaceDown(packetDropped)
attr title "packet drops: interface down, packetBytes"
vector 294 WSN_EnergyEfficient.sensorNode5.wlan[0] packetDropNoCarrier:vector(packetBytes) ETV
attr interpolationmode none
attr recordingmode vector(packetBytes)
attr source packetDropReasonIsNoCarrier(packetDropped)
attr title "packet drops: no carrier, packetBytes"
vector 295 WSN_EnergyEfficient.sensorNode5.ipv4.ip packetDropAddressResolutionFailed:vector(packetBytes) ETV
attr interpolationmode none
attr recordingmode vector(packetBytes)
attr source packetDropReasonIsAddressResolutionFailed(packetDropped)
attr title "packet drop: address resolution failed, packetBytes"
vector 296 WSN_EnergyEfficient.sensorNode5.ipv4.ip packetDropHopLimitReached:vector(packetBytes) ETV
attr interpolationmode none
attr recordingmode vector(packetBytes)
attr source packetDropReasonIsHopLimitReached(packetDropped)
attr title "packet drop: hop limit reached, packetBytes"
vector 297 WSN_EnergyEfficient.sensorNode5.ipv4.ip packetDropForwardingDisabled:vector(packetBytes) ETV
attr interpolationmode none
attr recordingmode vector(packetBytes)
attr source packetDropReasonIsForwardingDisabled(packetDropped)
attr title "packet drop: forwarding disabled, packetBytes"
vector 298 WSN_EnergyEfficient.sensorNode5.ipv4.ip packetDropNoInterfaceFound:vector(packetBytes) ETV
attr interpolationmode none
attr recordingmode vector(packetBytes)
attr source packetDropReasonIsNoInterfaceFound(packetDropped)
attr title "packet drop: no interface found, packetBytes"
vector 299 WSN_EnergyEfficient.sensorNode5.ipv4.ip packetDropNoRouteFound:vector(packetBytes) ETV
attr interpolationmode none
attr recordingmode vector(packetBytes)
attr source packetDropReasonIsNoRouteFound(packetDropped)
attr title "packet drop: no route found, packetBytes"
vector 300 WSN_EnergyEfficient.sensorNode5.ipv4.ip packetDropUndefined:vector(packetBytes) ETV
attr interpolationmode none
attr recordingmode vector(packetBytes)
attr source packetDropReasonIsUndefined(packetDropped)
attr title "packet drop: undefined, packetBytes"
vector 301 WSN_EnergyEfficient.sensorNode5.ipv4.arp arpRequestSent:vector(packetBytes) ETV
attr recordingmode vector(packetBytes)
attr source arpRequestSent
attr title "ARP request sent, packetBytes"
vector 302 WSN_EnergyEfficient.sensorNode5.ipv4.arp arpReplySent:vector(packetBytes) ETV
attr recordingmode vector(packetBytes)
attr source arpReplySent
attr title "ARP replies sent, packetBytes"
vector 303 WSN_EnergyEfficient.sensorNode5.udp packetSent:vector(packetBytes) ETV
attr interpolationmode none
attr recordingmode vector(packetBytes)
attr source packetSent
attr title "packets sent, packetBytes"
vector 304 WSN_EnergyEfficient.sensorNode5.udp packetReceived:vector(packetBytes) ETV
attr interpolationmode none
attr recordingmode vector(packetBytes)
attr source packetReceived
attr title "packets received, packetBytes"
vector 305 WSN_EnergyEfficient.sensorNode5.udp passedUpPk:vector(count) ETV
attr interpolationmode none
attr recordingmode vector(count)
attr source packetSentToUpper
attr title "packets passed up, count"
vector 306 WSN_EnergyEfficient.sensorNode5.udp droppedPkWrongPort:vector(count) ETV
attr interpolationmode none
attr recordingmode vector(count)
attr source packetDropReasonIsNoPortFound(packetDropped)
attr title "packets dropped (wrong port), count"
vector 307 WSN_EnergyEfficient.sensorNode5.udp droppedPkBadChecksum:vector(count) ETV
attr interpolationmode none
attr recordingmode vector(count)
attr source packetDropReasonIsIncorrectlyReceived(packetDropped)
[...]
479	268033 28 39 39 1.171764720667 1.171764720667 1 0.15 0.15 0.15 0.0225
532	268061 40 39 39 1.171764720667 1.171764720667 1 0.14999036821633 0.14999036821633 0.14999036821633 0.02249711055767
585	268101 40 39 39 1.171764720667 1.171764720667 1 0.14999037024379 0.14999037024379 0.14999037024379 0.02249711116587
638	268141 40 39 39 1.171764720667 1.171764720667 1 0.14999036808369 0.14999036808369 0.14999036808369 0.02249711051788
691	268181 40 39 39 1.171764720667 1.171764720667 1 0.14986652853848 0.14986652853848 0.14986652853848 0.022459976376174
744	268221 28 39 39 1.171764720667 1.171764720667 1 0.15 0.15 0.15 0.0225
530	268249 29 40 40 1.171764751571 1.171764751571 1 0.002 0.002 0.002 4e-06
532	268278 35 40 40 1.171764751571 1.171764751571 1 0.149990368 0.149990368 0.149990368 0.022497110492775
554	268313 29 40 40 1.171764751571 1.171764751571 1 0.002 0.002 0.002 4e-06
556	268342 25 40 40 1.171764751571 1.171764751571 1 1 1 1 1
2	268367 208 42 42 1.171764798158 1.171765039279 8 0.15 0.15 1.2 0.18
55	268575 309 42 42 1.171764798158 1.171765039279 8 0.14999036815078 0.1499903683919 1.1999229463534 0.17997688464816
108	268884 224 42 42 1.171764798158 1.171765039279 8 0.15 0.15 1.2 0.18
161	269108 224 42 42 1.171764798158 1.171765039279 8 0.15 0.15 1.2 0.18
214	269332 224 42 42 1.171764798158 1.171765039279 8 0.15 0.15 1.2 0.18
267	269556 224 42 42 1.171764798158 1.171765039279 8 0.15 0.15 1.2 0.18
320	269780 224 42 42 1.171764798158 1.171765039279 8 0.15 0.15 1.2 0.18
373	270004 224 42 42 1.171764798158 1.171765039279 8 0.15 0.15 1.2 0.18
426	270228 224 42 42 1.171764798158 1.171765039279 8 0.15 0.15 1.2 0.18
479	270452 224 42 42 1.171764798158 1.171765039279 8 0.15 0.15 1.2 0.18
532	270676 320 42 42 1.171764798158 1.171765039279 8 0.14999036804659 0.14999036828771 1.1999229455198 0.17997688439812
585	270996 319 42 42 1.171764798158 1.171765039279 8 0.14999036801351 0.14999036970136 1.199922949581 0.17997688561639
638	271315 318 42 42 1.171764798158 1.171765039279 8 0.14999036816118 0.1499903684023 1.1999229464366 0.17997688467313
691	271633 320 42 42 1.171764798158 1.171765039279 8 0.14986652861597 0.14986652885709 1.1989322300749 0.17967981153903
744	271953 224 42 42 1.171764798158 1.171765039279 8 0.15 0.15 1.2 0.18
583	272177 29 43 43 1.171765041209 1.171765041209 1 0.002 0.002 0.002 4e-06
585	272206 35 43 43 1.171765041209 1.171765041209 1 0.149990368 0.149990368 0.149990368 0.022497110492775
607	272241 29 43 43 1.171765041209 1.171765041209 1 0.002 0.002 0.002 4e-06
609	272270 25 43 43 1.171765041209 1.171765041209 1 1 1 1 1
2	272295 26 45 45 1.171765098553 1.171765098553 1 0.15 0.15 0.15 0.0225
55	272321 39 45 45 1.171765098553 1.171765098553 1 0.14999036845117 0.14999036845117 0.14999036845117 0.022497110628119
108	272360 28 45 45 1.171765098553 1.171765098553 1 0.15 0.15 0.15 0.0225
161	272388 28 45 45 1.171765098553 1.171765098553 1 0.15 0.15 0.15 0.0225
214	272416 28 45 45 1.171765098553 1.171765098553 1 0.15 0.15 0.15 0.0225
267	272444 28 45 45 1.171765098553 1.171765098553 1 0.15 0.15 0.15 0.0225
320	272472 28 45 45 1.171765098553 1.171765098553 1 0.15 0.15 0.15 0.0225
373	272500 28 45 45 1.171765098553 1.171765098553 1 0.15 0.15 0.15 0.0225
426	272528 28 45 45 1.171765098553 1.171765098553 1 0.15 0.15 0.15 0.0225
479	272556 28 45 45 1.171765098553 1.171765098553 1 0.15 0.15 0.15 0.0225
532	272584 40 45 45 1.171765098553 1.171765098553 1 0.14999036834698 0.14999036834698 0.14999036834698 0.022497110596863
585	272624 40 45 45 1.171765098553 1.171765098553 1 0.14999036805734 0.14999036805734 0.14999036805734 0.022497110509978
638	272664 40 45 45 1.171765098553 1.171765098553 1 0.14999036846157 0.14999036846157 0.14999036846157 0.022497110631239
691	272704 40 45 45 1.171765098553 1.171765098553 1 0.14986652891636 0.14986652891636 0.14986652891636 0.022459976489439
744	272744 28 45 45 1.171765098553 1.171765098553 1 0.15 0.15 0.15 0.0225
2	272772 26 46 46 1.171765225629 1.171765225629 1 0.15 0.15 0.15 0.0225
55	272798 39 46 46 1.171765225629 1.171765225629 1 0.14999036857825 0.14999036857825 0.14999036857825 0.022497110666239
108	272837 28 46 46 1.171765225629 1.171765225629 1 0.15 0.15 0.15 0.0225
161	272865 28 46 46 1.171765225629 1.171765225629 1 0.15 0.15 0.15 0.0225
214	272893 28 46 46 1.171765225629 1.171765225629 1 0.15 0.15 0.15 0.0225
267	272921 28 46 46 1.171765225629 1.171765225629 1 0.15 0.15 0.15 0.0225
320	272949 28 46 46 1.171765225629 1.171765225629 1 0.15 0.15 0.15 0.0225
373	272977 28 46 46 1.171765225629 1.171765225629 1 0.15 0.15 0.15 0.0225
426	273005 28 46 46 1.171765225629 1.171765225629 1 0.15 0.15 0.15 0.0225
479	273033 28 46 46 1.171765225629 1.171765225629 1 0.15 0.15 0.15 0.0225
532	273061 40 46 46 1.171765225629 1.171765225629 1 0.14999036847406 0.14999036847406 0.14999036847406 0.022497110634984
585	273101 40 46 46 1.171765225629 1.171765225629 1 0.14999036818442 0.14999036818442 0.14999036818442 0.022497110548098
638	273141 40 46 46 1.171765225629 1.171765225629 1 0.14999036858865 0.14999036858865 0.14999036858865 0.022497110669359
691	273181 40 46 46 1.171765225629 1.171765225629 1 0.14986652904344 0.14986652904344 0.14986652904344 0.022459976527527
744	273221 28 46 46 1.171765225629 1.171765225629 1 0.15 0.15 0.15 0.0225
2	273249 26 47 47 1.171765329075 1.171765329075 1 0.15 0.15 0.15 0.0225
55	273275 38 47 47 1.171765329075 1.171765329075 1 0.1499903686817 0.1499903686817 0.1499903686817 0.022497110697271
108	273313 28 47 47 1.171765329075 1.171765329075 1 0.15 0.15 0.15 0.0225
161	273341 28 47 47 1.171765329075 1.171765329075 1 0.15 0.15 0.15 0.0225
214	273369 28 47 47 1.171765329075 1.171765329075 1 0.15 0.15 0.15 0.0225
267	273397 28 47 47 1.171765329075 1.171765329075 1 0.15 0.15 0.15 0.0225
320	273425 28 47 47 1.171765329075 1.171765329075 1 0.15 0.15 0.15 0.0225
373	273453 28 47 47 1.171765329075 1.171765329075 1 0.15 0.15 0.15 0.0225
426	273481 28 47 47 1.171765329075 1.171765329075 1 0.15 0.15 0.15 0.0225
479	273509 28 47 47 1.171765329075 1.171765329075 1 0.15 0.15 0.15 0.0225
532	273537 39 47 47 1.171765329075 1.171765329075 1 0.1499903685775 0.1499903685775 0.1499903685775 0.022497110666015
585	273576 40 47 47 1.171765329075 1.171765329075 1 0.14999036828787 0.14999036828787 0.14999036828787 0.02249711057913
638	273616 39 47 47 1.171765329075 1.171765329075 1 0.1499903686921 0.1499903686921 0.1499903686921 0.022497110700391
691	273655 40 47 47 1.171765329075 1.171765329075 1 0.14986652914688 0.14986652914688 0.14986652914688 0.022459976558534
744	273695 28 47 47 1.171765329075 1.171765329075 1 0.15 0.15 0.15 0.0225
2	273723 26 48 48 1.171765425353 1.171765425353 1 0.15 0.15 0.15 0.0225
55	273749 39 48 48 1.171765425353 1.171765425353 1 0.14999036877797 0.14999036877797 0.14999036877797 0.022497110726153
108	273788 28 48 48 1.171765425353 1.171765425353 1 0.15 0.15 0.15 0.0225
161	273816 28 48 48 1.171765425353 1.171765425353 1 0.15 0.15 0.15 0.0225
214	273844 28 48 48 1.171765425353 1.171765425353 1 0.15 0.15 0.15 0.0225
267	273872 28 48 48 1.171765425353 1.171765425353 1 0.15 0.15 0.15 0.0225
320	273900 28 48 48 1.171765425353 1.171765425353 1 0.15 0.15 0.15 0.0225
373	273928 28 48 48 1.171765425353 1.171765425353 1 0.15 0.15 0.15 0.0225
426	273956 28 48 48 1.171765425353 1.171765425353 1 0.15 0.15 0.15 0.0225
479	273984 28 48 48 1.171765425353 1.171765425353 1 0.15 0.15 0.15 0.0225
532	274012 40 48 48 1.171765425353 1.171765425353 1 0.14999036867378 0.14999036867378 0.14999036867378 0.022497110694897
585	274052 40 48 48 1.171765425353 1.171765425353 1 0.14999036838414 0.14999036838414 0.14999036838414 0.022497110608011
638	274092 40 48 48 1.171765425353 1.171765425353 1 0.14999036878837 0.14999036878837 0.14999036878837 0.022497110729273
691	274132 40 48 48 1.171765425353 1.171765425353 1 0.14986652924316 0.14986652924316 0.14986652924316 0.022459976587391
744	274172 28 48 48 1.171765425353 1.171765425353 1 0.15 0.15 0.15 0.0225
2	274200 26 49 49 1.171765433773 1.171765433773 1 0.15 0.15 0.15 0.0225
55	274226 39 49 49 1.171765433773 1.171765433773 1 0.14999036878639 0.14999036878639 0.14999036878639 0.022497110728678
108	274265 28 49 49 1.171765433773 1.171765433773 1 0.15 0.15 0.15 0.0225
161	274293 28 49 49 1.171765433773 1.171765433773 1 0.15 0.15 0.15 0.0225
214	274321 28 49 49 1.171765433773 1.171765433773 1 0.15 0.15 0.15 0.0225
267	274349 28 49 49 1.171765433773 1.171765433773 1 0.15 0.15 0.15 0.0225
320	274377 28 49 49 1.171765433773 1.171765433773 1 0.15 0.15 0.15 0.0225
373	274405 28 49 49 1.171765433773 1.171765433773 1 0.15 0.15 0.15 0.0225
426	274433 28 49 49 1.171765433773 1.171765433773 1 0.15 0.15 0.15 0.0225
479	274461 28 49 49 1.171765433773 1.171765433773 1 0.15 0.15 0.15 0.0225
532	274489 39 49 49 1.171765433773 1.171765433773 1 0.1499903686822 0.1499903686822 0.1499903686822 0.022497110697423
585	274528 40 49 49 1.171765433773 1.171765433773 1 0.14999036839256 0.14999036839256 0.14999036839256 0.022497110610537
638	274568 40 49 49 1.171765433773 1.171765433773 1 0.14999036879679 0.14999036879679 0.14999036879679 0.022497110731799
691	274608 40 49 49 1.171765433773 1.171765433773 1 0.14986652925158 0.14986652925158 0.14986652925158 0.022459976589915
744	274648 28 49 49 1.171765433773 1.171765433773 1 0.15 0.15 0.15 0.0225
2	274676 25 50 50 1.17176553638 1.17176553638 1 0.15 0.15 0.15 0.0225
55	274701 36 50 50 1.17176553638 1.17176553638 1 0.149990368889 0.149990368889 0.149990368889 0.022497110759459
108	274737 27 50 50 1.17176553638 1.17176553638 1 0.15 0.15 0.15 0.0225
161	274764 27 50 50 1.17176553638 1.17176553638 1 0.15 0.15 0.15 0.0225
214	274791 27 50 50 1.17176553638 1.17176553638 1 0.15 0.15 0.15 0.0225
267	274818 27 50 50 1.17176553638 1.17176553638 1 0.15 0.15 0.15 0.0225
320	274845 27 50 50 1.17176553638 1.17176553638 1 0.15 0.15 0.15 0.0225
373	274872 27 50 50 1.17176553638 1.17176553638 1 0.15 0.15 0.15 0.0225
426	274899 27 50 50 1.17176553638 1.17176553638 1 0.15 0.15 0.15 0.0225
479	274926 27 50 50 1.17176553638 1.17176553638 1 0.15 0.15 0.15 0.0225
532	274953 39 50 50 1.17176553638 1.17176553638 1 0.14999036878481 0.14999036878481 0.14999036878481 0.022497110728203
585	274992 39 50 50 1.17176553638 1.17176553638 1 0.14999036849517 0.14999036849517 0.14999036849517 0.022497110641317
638	275031 38 50 50 1.17176553638 1.17176553638 1 0.1499903688994 0.1499903688994 0.1499903688994 0.022497110762579
691	275069 39 50 50 1.17176553638 1.17176553638 1 0.14986652935419 0.14986652935419 0.14986652935419 0.02245997662067
744	275108 27 50 50 1.17176553638 1.17176553638 1 0.15 0.15 0.15 0.0225
2	275135 26 51 51 1.171765561668 1.171765561668 1 0.15 0.15 0.15 0.0225
55	275161 39 51 51 1.171765561668 1.171765561668 1 0.14999036891429 0.14999036891429 0.14999036891429 0.022497110767044
108	275200 28 51 51 1.171765561668 1.171765561668 1 0.15 0.15 0.15 0.0225
161	275228 28 51 51 1.171765561668 1.171765561668 1 0.15 0.15 0.15 0.0225
214	275256 28 51 51 1.171765561668 1.171765561668 1 0.15 0.15 0.15 0.0225
267	275284 28 51 51 1.171765561668 1.171765561668 1 0.15 0.15 0.15 0.0225
320	275312 28 51 51 1.171765561668 1.171765561668 1 0.15 0.15 0.15 0.0225
373	275340 28 51 51 1.171765561668 1.171765561668 1 0.15 0.15 0.15 0.0225
426	275368 28 51 51 1.171765561668 1.171765561668 1 0.15 0.15 0.15 0.0225
479	275396 28 51 51 1.171765561668 1.171765561668 1 0.15 0.15 0.15 0.0225
532	275424 39 51 51 1.171765561668 1.171765561668 1 0.1499903688101 0.1499903688101 0.1499903688101 0.022497110735789
585	275463 40 51 51 1.171765561668 1.171765561668 1 0.14999036852046 0.14999036852046 0.14999036852046 0.022497110648903
638	275503 40 51 51 1.171765561668 1.171765561668 1 0.14999036892469 0.14999036892469 0.14999036892469 0.022497110770165
691	275543 40 51 51 1.171765561668 1.171765561668 1 0.14986652937948 0.14986652937948 0.14986652937948 0.022459976628249
744	275583 28 51 51 1.171765561668 1.171765561668 1 0.15 0.15 0.15 0.0225
2	275611 26 52 52 1.171765721662 1.171765721662 1 0.15 0.15 0.15 0.0225
55	275637 39 52 52 1.171765721662 1.171765721662 1 0.14999036907428 0.14999036907428 0.14999036907428 0.02249711081504
108	275676 28 52 52 1.171765721662 1.171765721662 1 0.15 0.15 0.15 0.0225
161	275704 28 52 52 1.171765721662 1.171765721662 1 0.15 0.15 0.15 0.0225
214	275732 28 52 52 1.171765721662 1.171765721662 1 0.15 0.15 0.15 0.0225
267	275760 28 52 52 1.171765721662 1.171765721662 1 0.15 0.15 0.15 0.0225
320	275788 28 52 52 1.171765721662 1.171765721662 1 0.15 0.15 0.15 0.0225
373	275816 28 52 52 1.171765721662 1.171765721662 1 0.15 0.15 0.15 0.0225
426	275844 28 52 52 1.171765721662 1.171765721662 1 0.15 0.15 0.15 0.0225
479	275872 28 52 52 1.171765721662 1.171765721662 1 0.15 0.15 0.15 0.0225
532	275900 40 52 52 1.171765721662 1.171765721662 1 0.14999036897009 0.14999036897009 0.14999036897009 0.022497110783784
585	275940 40 52 52 1.171765721662 1.171765721662 1 0.14999036868045 0.14999036868045 0.14999036868045 0.022497110696898
638	275980 40 52 52 1.171765721662 1.171765721662 1 0.14999036908468 0.14999036908468 0.14999036908468 0.02249711081816
691	276020 40 52 52 1.171765721662 1.171765721662 1 0.14986652953947 0.14986652953947 0.14986652953947 0.022459976676205
744	276060 28 52 52 1.171765721662 1.171765721662 1 0.15 0.15 0.15 0.0225
2	276088 25 53 53 1.17176586966 1.17176586966 1 0.15 0.15 0.15 0.0225
55	276113 38 53 53 1.17176586966 1.17176586966 1 0.14999036922228 0.14999036922228 0.14999036922228 0.022497110859436
108	276151 27 53 53 1.17176586966 1.17176586966 1 0.15 0.15 0.15 0.0225
161	276178 27 53 53 1.17176586966 1.17176586966 1 0.15 0.15 0.15 0.0225
214	276205 27 53 53 1.17176586966 1.17176586966 1 0.15 0.15 0.15 0.0225
267	276232 27 53 53 1.17176586966 1.17176586966 1 0.15 0.15 0.15 0.0225
320	276259 27 53 53 1.17176586966 1.17176586966 1 0.15 0.15 0.15 0.0225
373	276286 27 53 53 1.17176586966 1.17176586966 1 0.15 0.15 0.15 0.0225
426	276313 27 53 53 1.17176586966 1.17176586966 1 0.15 0.15 0.15 0.0225
479	276340 27 53 53 1.17176586966 1.17176586966 1 0.15 0.15 0.15 0.0225
532	276367 39 53 53 1.17176586966 1.17176586966 1 0.14999036911809 0.14999036911809 0.14999036911809 0.022497110828181
585	276406 39 53 53 1.17176586966 1.17176586966 1 0.14999036882845 0.14999036882845 0.14999036882845 0.022497110741295
638	276445 39 53 53 1.17176586966 1.17176586966 1 0.14999036923268 0.14999036923268 0.14999036923268 0.022497110862556
691	276484 39 53 53 1.17176586966 1.17176586966 1 0.14986652968747 0.14986652968747 0.14986652968747 0.022459976720565
744	276523 27 53 53 1.17176586966 1.17176586966 1 0.15 0.15 0.15 0.0225
2	276550 26 54 54 1.171765949027 1.171765949027 1 0.15 0.15 0.15 0.0225
55	276576 39 54 54 1.171765949027 1.171765949027 1 0.14999036930165 0.14999036930165 0.14999036930165 0.022497110883245
108	276615 28 54 54 1.171765949027 1.171765949027 1 0.15 0.15 0.15 0.0225
161	276643 28 54 54 1.171765949027 1.171765949027 1 0.15 0.15 0.15 0.0225
214	276671 28 54 54 1.171765949027 1.171765949027 1 0.15 0.15 0.15 0.0225
267	276699 28 54 54 1.171765949027 1.171765949027 1 0.15 0.15 0.15 0.0225
320	276727 28 54 54 1.171765949027 1.171765949027 1 0.15 0.15 0.15 0.0225
373	276755 28 54 54 1.171765949027 1.171765949027 1 0.15 0.15 0.15 0.0225
426	276783 28 54 54 1.171765949027 1.171765949027 1 0.15 0.15 0.15 0.0225
479	276811 28 54 54 1.171765949027 1.171765949027 1 0.15 0.15 0.15 0.0225
532	276839 40 54 54 1.171765949027 1.171765949027 1 0.14999036919746 0.14999036919746 0.14999036919746 0.022497110851989
585	276879 40 54 54 1.171765949027 1.171765949027 1 0.14999036890782 0.14999036890782 0.14999036890782 0.022497110765103
638	276919 40 54 54 1.171765949027 1.171765949027 1 0.14999036931205 0.14999036931205 0.14999036931205 0.022497110886365
691	276959 40 54 54 1.171765949027 1.171765949027 1 0.14986652976684 0.14986652976684 0.14986652976684 0.022459976744354
744	276999 28 54 54 1.171765949027 1.171765949027 1 0.15 0.15 0.15 0.0225
2	277027 26 55 55 1.171766085724 1.171766085724 1 0.15 0.15 0.15 0.0225
55	277053 39 55 55 1.171766085724 1.171766085724 1 0.14999036943834 0.14999036943834 0.14999036943834 0.022497110924251
108	277092 28 55 55 1.171766085724 1.171766085724 1 0.15 0.15 0.15 0.0225
161	277120 28 55 55 1.171766085724 1.171766085724 1 0.15 0.15 0.15 0.0225
214	277148 28 55 55 1.171766085724 1.171766085724 1 0.15 0.15 0.15 0.0225
267	277176 28 55 55 1.171766085724 1.171766085724 1 0.15 0.15 0.15 0.0225
320	277204 28 55 55 1.171766085724 1.171766085724 1 0.15 0.15 0.15 0.0225
373	277232 28 55 55 1.171766085724 1.171766085724 1 0.15 0.15 0.15 0.0225
426	277260 28 55 55 1.171766085724 1.171766085724 1 0.15 0.15 0.15 0.0225
479	277288 28 55 55 1.171766085724 1.171766085724 1 0.15 0.15 0.15 0.0225
532	277316 40 55 55 1.171766085724 1.171766085724 1 0.14999036933415 0.14999036933415 0.14999036933415 0.022497110892996
585	277356 40 55 55 1.171766085724 1.171766085724 1 0.14999036904451 0.14999036904451 0.14999036904451 0.02249711080611
638	277396 40 55 55 1.171766085724 1.171766085724 1 0.14999036944875 0.14999036944875 0.14999036944875 0.022497110927371
691	277436 40 55 55 1.171766085724 1.171766085724 1 0.14986652990353 0.14986652990353 0.14986652990353 0.022459976785326
744	277476 28 55 55 1.171766085724 1.171766085724 1 0.15 0.15 0.15 0.0225
12	277504 165 56 56 0.1 1.171766085724 12 0 0 0 0
14	277669 165 56 56 0.1 1.171766085724 12 0 0 0 0
49	277834 165 56 56 0.1 1.171766085724 12 0 0 0 0
65	277999 165 56 56 0.1 1.171766085724 12 0 0 0 0
67	278164 165 56 56 0.1 1.171766085724 12 0 0 0 0
102	278329 177 56 56 0.1 1.171766085724 12 0 0 0 0
118	278506 177 56 56 0.1 1.171766085724 12 0 0 0 0
120	278683 177 56 56 0.1 1.171766085724 12 0 0 0 0
155	278860 177 56 56 0.1 1.171766085724 12 0 0 0 0
171	279037 177 56 56 0.1 1.171766085724 12 0 0 0 0
173	279214 177 56 56 0.1 1.171766085724 12 0 0 0 0
208	279391 177 56 56 0.1 1.171766085724 12 0 0 0 0
224	279568 177 56 56 0.1 1.171766085724 12 0 0 0 0
226	279745 177 56 56 0.1 1.171766085724 12 0 0 0 0
261	279922 177 56 56 0.1 1.171766085724 12 0 0 0 0
277	280099 177 56 56 0.1 1.171766085724 12 0 0 0 0
279	280276 177 56 56 0.1 1.171766085724 12 0 0 0 0
314	280453 177 56 56 0.1 1.171766085724 12 0 0 0 0
330	280630 177 56 56 0.1 1.171766085724 12 0 0 0 0
332	280807 177 56 56 0.1 1.171766085724 12 0 0 0 0
367	280984 177 56 56 0.1 1.171766085724 12 0 0 0 0
383	281161 177 56 56 0.1 1.171766085724 12 0 0 0 0
385	281338 177 56 56 0.1 1.171766085724 12 0 0 0 0
420	281515 177 56 56 0.1 1.171766085724 12 0 0 0 0
436	281692 177 56 56 0.1 1.171766085724 12 0 0 0 0
438	281869 177 56 56 0.1 1.171766085724 12 0 0 0 0
473	282046 177 56 56 0.1 1.171766085724 12 0 0 0 0
489	282223 177 56 56 0.1 1.171766085724 12 0 0 0 0
491	282400 177 56 56 0.1 1.171766085724 12 0 0 0 0
526	282577 177 56 56 0.1 1.171766085724 12 0 0 0 0
542	282754 177 56 56 0.1 1.171766085724 12 0 0 0 0
544	282931 177 56 56 0.1 1.171766085724 12 0 0 0 0
579	283108 177 56 56 0.1 1.171766085724 12 0 0 0 0
595	283285 177 56 56 0.1 1.171766085724 12 0 0 0 0
597	283462 177 56 56 0.1 1.171766085724 12 0 0 0 0
632	283639 177 56 56 0.1 1.171766085724 12 0 0 0 0
648	283816 177 56 56 0.1 1.171766085724 12 0 0 0 0
650	283993 177 56 56 0.1 1.171766085724 12 0 0 0 0
685	284170 177 56 56 0.1 1.171766085724 12 0 0 0 0
701	284347 39 56 56 1.171766085724 1.171766085724 1 3121.2514621665 3121.2514621665 3121.2514621665 9742210.6900764
703	284386 39 56 56 1.171766085724 1.171766085724 1 3121.2514621665 3121.2514621665 3121.2514621665 9742210.6900764
738	284425 177 56 56 0.1 1.171766085724 12 0 0 0 0
754	284602 177 56 56 0.1 1.171766085724 12 0 0 0 0
756	284779 177 56 56 0.1 1.171766085724 12 0 0 0 0
791	284956 177 56 56 0.1 1.171766085724 12 0 0 0 0
803	285133 177 56 56 0.1 1.171766085724 12 0 0 0 0
805	285310 177 56 56 0.1 1.171766085724 12 0 0 0 0
834	285487 177 56 56 0.1 1.171766085724 12 0 0 0 0
845	285664 177 56 56 0.1 1.171766085724 12 0 0 0 0
847	285841 177 56 56 0.1 1.171766085724 12 0 0 0 0
876	286018 177 56 56 0.1 1.171766085724 12 0 0 0 0

