version 3
run General-0-20250704-02:54:16-17728
attr configname General
attr datetime 20250704-02:54:16
attr datetimef 20250704-025416
attr experiment General
attr inifile omnetpp.ini
attr iterationvars ""
attr iterationvarsd ""
attr iterationvarsf ""
attr measurement ""
attr network WSN_EnergyEfficient
attr processid 17728
attr repetition 0
attr replication #0
attr resultdir results
attr runnumber 0
attr seedset 0
config image-path ../../inet4.5/images
config network WSN_EnergyEfficient
config sim-time-limit 200s
config *.visualizer.energyStorageVisualizer.displayEnergyStorages true
config *.visualizer.dataLinkVisualizer.displayLinks true
config *.visualizer.dataLinkVisualizer.packetFilter "\"*\""
config *.visualizer.networkRouteVisualizer.displayRoutes true
config *.visualizer.networkRouteVisualizer.packetFilter "\"*\""
config *.visualizer.networkRouteVisualizer.lineColor "\"blue\""
config *.visualizer.physicalLinkVisualizer.displayLinks true
config *.visualizer.mobilityVisualizer.displayMobility true
config *.visualizer.mobilityVisualizer.displayMovementTrails true
config *.sensorNode*.hasStatus true
config *.sensorNode*.energyStorage.typename SimpleEpEnergyStorage
config *.sensorNode*.wlan[0].radio.energyConsumer.typename StateBasedEpEnergyConsumer
config *.sensorNode*.energyManagement.typename SimpleEpEnergyManagement
config *.sensorNode*.energyStorage.nominalCapacity 0.15J
config *.sensorNode*.energyStorage.initialCapacity 0.15J
config *.sensorNode*.energyStorage.printCapacityStep 0.0015J
config *.sensorNode*.energyManagement.nodeShutdownCapacity 0.06J
config *.sensorNode*.energyManagement.nodeStartCapacity 0.09J
config *.sensorNode*.energyGenerator.typename AlternatingEpEnergyGenerator
config *.sensorNode*.energyGenerator.powerGeneration 3mW
config *.sensorNode*.energyGenerator.sleepInterval exponential(15s)
config *.sensorNode*.energyGenerator.generationInterval exponential(20s)
config *.sensorNode*.mobility.typename StationaryMobility
config *.sensorNode*.mobility.initFromDisplayString true
config *.accessPoint*.mobility.typename StationaryMobility
config *.accessPoint*.mobility.initFromDisplayString true
config **.wlan[*].typename Ieee802154NarrowbandInterface
config **.wlan[*].radio.transmitter.power 2.24mW
config **.wlan[*].radio.receiver.sensitivity -85dBm
config **.wlan[*].radio.receiver.energyDetection -85dBm
config **.wlan[*].radio.receiver.snirThreshold 4dB
config **.wlan[*].radio.centerFrequency 2.4GHz
config **.wlan[*].radio.bandwidth 2MHz
config **.wlan[*].mac.useMACAcks true
config **.wlan[*].mac.rxSetupTime 0.00192s
config **.radioMedium.backgroundNoise.power -110dBm
config *.*.routing.typename Aodv
config *.configurator.addStaticRoutes false
config *.configurator.addDefaultRoutes false
config *.configurator.addSubnetRoutes false
config *.configurator.optimizeRoutes false
config *.sensorNode*.numApps 2
config *.sensorNode*.app[0].typename PingApp
config *.sensorNode*.app[0].destAddr "\"accessPoint0\""
config *.sensorNode*.app[0].startTime "uniform(1s, 10s)"
config *.sensorNode*.app[0].stopTime 190s
config *.sensorNode*.app[0].sendInterval exponential(20s)
config *.sensorNode*.app[0].packetSize 64B
config *.sensorNode*.app[0].printPing true
config *.sensorNode*.app[1].typename UdpBasicApp
config *.sensorNode*.app[1].destAddresses "\"accessPoint0\""
config *.sensorNode*.app[1].destPort 5000
config *.sensorNode*.app[1].messageLength 32B
config *.sensorNode*.app[1].sendInterval exponential(25s)
config *.sensorNode*.app[1].startTime "uniform(5s, 15s)"
config *.sensorNode*.app[1].stopTime 190s
config *.accessPoint*.numApps 1
config *.accessPoint*.hasStatus true
config *.accessPoint*.app[0].typename UdpSink
config *.accessPoint*.app[0].localPort 5000
config *.sensorNode*.wlan[0].mac.typename Ieee802154Mac
config *.sensorNode*.wlan[0].mac.macMaxFrameRetries 3
config *.sensorNode*.wlan[0].mac.macMaxBE 5
config *.sensorNode*.wlan[0].mac.macMinBE 3
config *.accessPoint*.wlan[0].mac.typename Ieee802154Mac
config *.accessPoint*.wlan[0].mac.macMaxFrameRetries 3
config *.sensorNode*.wlan[0].mac.recordStatistics true
config *.accessPoint*.wlan[0].mac.recordStatistics true
config *.radioMedium.pathLoss.typename FreeSpacePathLoss
config *.sensorNode*.wlan[0].radio.displayCommunicationRange false
config *.accessPoint*.wlan[0].radio.displayCommunicationRange false
config *.radioMedium.carrierFrequency 2.4GHz
config *.radioMedium.bandwidth 250kbps

vector 0 WSN_EnergyEfficient.sensorNode0.energyStorage powerConsumption:vector ETV
attr interpolationmode sample-hold
attr recordingmode vector
attr source powerConsumptionChanged
attr title "Power consumption"
attr unit W
vector 1 WSN_EnergyEfficient.sensorNode0.energyStorage powerGeneration:vector ETV
attr interpolationmode sample-hold
attr recordingmode vector
attr source powerGenerationChanged
attr title "Power generation"
attr unit W
vector 2 WSN_EnergyEfficient.sensorNode0.energyStorage residualEnergyCapacity:vector ETV
attr interpolationmode linear
attr recordingmode vector
attr source residualEnergyCapacityChanged
attr title "Residual energy capacity"
attr unit J
vector 3 WSN_EnergyEfficient.sensorNode0.energyGenerator powerGeneration:vector ETV
attr interpolationmode sample-hold
attr recordingmode vector
attr source powerGenerationChanged
attr title "Power generation"
attr unit W
vector 4 WSN_EnergyEfficient.sensorNode0.lo[0].lo rcvdPkFromHl:vector(packetBytes) ETV
attr interpolationmode none
attr recordingmode vector(packetBytes)
attr source packetReceivedFromUpper
attr title "packets received from higher layer, packetBytes"
vector 5 WSN_EnergyEfficient.sensorNode0.lo[0].lo passedUpPk:vector(packetBytes) ETV
attr interpolationmode none
attr recordingmode vector(packetBytes)
attr source packetSentToUpper
attr title "packets passed to higher layer, packetBytes"
vector 6 WSN_EnergyEfficient.sensorNode0.lo[0] packetDropInterfaceDown:vector(packetBytes) ETV
attr interpolationmode none
attr recordingmode vector(packetBytes)
attr source packetDropReasonIsInterfaceDown(packetDropped)
attr title "packet drops: interface down, packetBytes"
vector 7 WSN_EnergyEfficient.sensorNode0.lo[0] packetDropNoCarrier:vector(packetBytes) ETV
attr interpolationmode none
attr recordingmode vector(packetBytes)
attr source packetDropReasonIsNoCarrier(packetDropped)
attr title "packet drops: no carrier, packetBytes"
vector 8 WSN_EnergyEfficient.sensorNode0.wlan[0].queue queueLength:vector ETV
attr autoWarmupFilter false
attr interpolationmode sample-hold
attr recordingmode vector
attr source "warmup(atomic(constant0(packetPushEnded) + count(packetPushStarted) - count(packetPulled) - count(packetRemoved) - count(packetDropped)))"
attr title "queue length"
attr unit pk
vector 9 WSN_EnergyEfficient.sensorNode0.wlan[0].queue queueBitLength:vector ETV
attr autoWarmupFilter false
attr interpolationmode sample-hold
attr recordingmode vector
attr source "warmup(atomic(constant0(packetPushEnded) + sum(packetLength(packetPushStarted)) - sum(packetLength(packetPulled)) - sum(packetLength(packetRemoved)) - sum(packetLength(packetDropped))))"
attr title "queue bit length"
attr unit b
vector 10 WSN_EnergyEfficient.sensorNode0.wlan[0].queue queueingTime:vector ETV
attr interpolationmode none
attr recordingmode vector
attr source queueingTime(packetPulled)
attr title "queueing times"
attr unit s
vector 11 WSN_EnergyEfficient.sensorNode0.wlan[0].queue incomingPacketLengths:vector ETV
attr interpolationmode none
attr recordingmode vector
attr source packetLength(packetPushStarted)
attr title "incoming packet lengths"
attr unit b
vector 12 WSN_EnergyEfficient.sensorNode0.wlan[0].queue incomingDataRate:vector ETV
attr interpolationmode linear
attr recordingmode vector
attr source throughput(packetPushStarted)
attr title "incoming datarate"
attr unit bps
vector 13 WSN_EnergyEfficient.sensorNode0.wlan[0].queue outgoingPacketLengths:vector ETV
attr interpolationmode none
attr recordingmode vector
attr source packetLength(packetPulled)
attr title "outgoing packet lengths"
attr unit b
vector 14 WSN_EnergyEfficient.sensorNode0.wlan[0].queue outgoingDataRate:vector ETV
attr interpolationmode linear
attr recordingmode vector
attr source throughput(packetPulled)
attr title "outgoing datarate"
attr unit bps
vector 15 WSN_EnergyEfficient.sensorNode0.wlan[0].queue droppedPacketLengthsQueueOverflow:vector ETV
attr interpolationmode none
attr recordingmode vector
attr source packetLength(packetDropReasonIsQueueOverflow(packetDropped))
attr title "dropped packet lengths: queue overflow"
attr unit b
vector 16 WSN_EnergyEfficient.sensorNode0.wlan[0].queue flowQueueingTime:vector ETV
attr interpolationmode none
attr recordingmode vector
attr source queueingTime(demuxFlow(packetPulled))
attr title "flow queueing times"
attr unit s
vector 17 WSN_EnergyEfficient.sensorNode0.wlan[0].queue flowIncomingDataRate:vector ETV
attr interpolationmode linear
attr recordingmode vector
attr source throughput(flowPacketLength(demuxFlow(packetPushStarted)))
attr title "flow specific incoming data rate"
attr unit bps
vector 18 WSN_EnergyEfficient.sensorNode0.wlan[0].queue flowOutgoingDataRate:vector ETV
attr interpolationmode linear
attr recordingmode vector
attr source throughput(flowPacketLength(demuxFlow(packetPulled)))
attr title "flow specific outgoing data rate"
attr unit bps
vector 19 WSN_EnergyEfficient.sensorNode0.wlan[0].mac packetDropNotAddressToUs:vector(packetBytes) ETV
attr interpolationmode none
attr recordingmode vector(packetBytes)
attr source packetDropReasonIsNotAddressedToUs(packetDropped)
attr title "packet drop: not addressed to us, packetBytes"
vector 20 WSN_EnergyEfficient.sensorNode0.wlan[0].mac packetDropIncorrectlyReceived:vector(packetBytes) ETV
attr interpolationmode none
attr recordingmode vector(packetBytes)
attr source packetDropReasonIsIncorrectlyReceived(packetDropped)
attr title "packet drop: incorrectly received, packetBytes"
vector 21 WSN_EnergyEfficient.sensorNode0.wlan[0].mac packetDropQueueOverflow:vector(packetBytes) ETV
attr interpolationmode none
attr recordingmode vector(packetBytes)
attr source packetDropReasonIsQueueOverflow(packetDropped)
attr title "packet drop: queue overflow, packetBytes"
vector 22 WSN_EnergyEfficient.sensorNode0.wlan[0].mac packetDropRetryLimitReached:vector(packetBytes) ETV
attr interpolationmode none
attr recordingmode vector(packetBytes)
attr source packetDropReasonIsRetryLimitReached(packetDropped)
attr title "packet drop: retry limit reached, packetBytes"
vector 23 WSN_EnergyEfficient.sensorNode0.wlan[0].mac packetDropBackoffLimitReached:vector(packetBytes) ETV
attr interpolationmode none
attr recordingmode vector(packetBytes)
attr source packetDropReasonIsCongestion(packetDropped)
attr title "packet drop: backoff limit reached, packetBytes"
vector 24 WSN_EnergyEfficient.sensorNode0.wlan[0].radio.energyConsumer powerConsumption:vector ETV
attr interpolationmode sample-hold
attr recordingmode vector
attr source powerConsumptionChanged
attr title "Power consumption"
attr unit W
vector 25 WSN_EnergyEfficient.sensorNode0.wlan[0].radio radioMode:vector ETV
attr interpolationmode sample-hold
attr recordingmode vector
attr source radioModeChanged
attr title "Radio mode"
vector 26 WSN_EnergyEfficient.sensorNode0.wlan[0].radio receptionState:vector ETV
attr interpolationmode sample-hold
attr recordingmode vector
attr source receptionStateChanged
attr title "Radio reception state"
vector 27 WSN_EnergyEfficient.sensorNode0.wlan[0].radio transmissionState:vector ETV
attr interpolationmode sample-hold
attr recordingmode vector
attr source transmissionStateChanged
attr title "Radio transmission state"
vector 28 WSN_EnergyEfficient.sensorNode0.wlan[0] packetDropInterfaceDown:vector(packetBytes) ETV
attr interpolationmode none
attr recordingmode vector(packetBytes)
attr source packetDropReasonIsInterfaceDown(packetDropped)
attr title "packet drops: interface down, packetBytes"
vector 29 WSN_EnergyEfficient.sensorNode0.wlan[0] packetDropNoCarrier:vector(packetBytes) ETV
attr interpolationmode none
attr recordingmode vector(packetBytes)
attr source packetDropReasonIsNoCarrier(packetDropped)
attr title "packet drops: no carrier, packetBytes"
vector 30 WSN_EnergyEfficient.sensorNode0.ipv4.ip packetDropAddressResolutionFailed:vector(packetBytes) ETV
attr interpolationmode none
attr recordingmode vector(packetBytes)
attr source packetDropReasonIsAddressResolutionFailed(packetDropped)
attr title "packet drop: address resolution failed, packetBytes"
vector 31 WSN_EnergyEfficient.sensorNode0.ipv4.ip packetDropHopLimitReached:vector(packetBytes) ETV
attr interpolationmode none
attr recordingmode vector(packetBytes)
attr source packetDropReasonIsHopLimitReached(packetDropped)
attr title "packet drop: hop limit reached, packetBytes"
vector 32 WSN_EnergyEfficient.sensorNode0.ipv4.ip packetDropForwardingDisabled:vector(packetBytes) ETV
attr interpolationmode none
attr recordingmode vector(packetBytes)
attr source packetDropReasonIsForwardingDisabled(packetDropped)
attr title "packet drop: forwarding disabled, packetBytes"
vector 33 WSN_EnergyEfficient.sensorNode0.ipv4.ip packetDropNoInterfaceFound:vector(packetBytes) ETV
attr interpolationmode none
attr recordingmode vector(packetBytes)
attr source packetDropReasonIsNoInterfaceFound(packetDropped)
attr title "packet drop: no interface found, packetBytes"
vector 34 WSN_EnergyEfficient.sensorNode0.ipv4.ip packetDropNoRouteFound:vector(packetBytes) ETV
attr interpolationmode none
attr recordingmode vector(packetBytes)
attr source packetDropReasonIsNoRouteFound(packetDropped)
attr title "packet drop: no route found, packetBytes"
vector 35 WSN_EnergyEfficient.sensorNode0.ipv4.ip packetDropUndefined:vector(packetBytes) ETV
attr interpolationmode none
attr recordingmode vector(packetBytes)
attr source packetDropReasonIsUndefined(packetDropped)
attr title "packet drop: undefined, packetBytes"
vector 36 WSN_EnergyEfficient.sensorNode0.ipv4.arp arpRequestSent:vector(packetBytes) ETV
attr recordingmode vector(packetBytes)
attr source arpRequestSent
attr title "ARP request sent, packetBytes"
vector 37 WSN_EnergyEfficient.sensorNode0.ipv4.arp arpReplySent:vector(packetBytes) ETV
attr recordingmode vector(packetBytes)
attr source arpReplySent
attr title "ARP replies sent, packetBytes"
vector 38 WSN_EnergyEfficient.sensorNode0.udp packetSent:vector(packetBytes) ETV
attr interpolationmode none
attr recordingmode vector(packetBytes)
attr source packetSent
attr title "packets sent, packetBytes"
vector 39 WSN_EnergyEfficient.sensorNode0.udp packetReceived:vector(packetBytes) ETV
attr interpolationmode none
attr recordingmode vector(packetBytes)
attr source packetReceived
attr title "packets received, packetBytes"
vector 40 WSN_EnergyEfficient.sensorNode0.udp passedUpPk:vector(count) ETV
attr interpolationmode none
attr recordingmode vector(count)
attr source packetSentToUpper
attr title "packets passed up, count"
vector 41 WSN_EnergyEfficient.sensorNode0.udp droppedPkWrongPort:vector(count) ETV
attr interpolationmode none
attr recordingmode vector(count)
attr source packetDropReasonIsNoPortFound(packetDropped)
attr title "packets dropped (wrong port), count"
vector 42 WSN_EnergyEfficient.sensorNode0.udp droppedPkBadChecksum:vector(count) ETV
attr interpolationmode none
attr recordingmode vector(count)
attr source packetDropReasonIsIncorrectlyReceived(packetDropped)
attr title "packets dropped (checksum error), count"
vector 43 WSN_EnergyEfficient.sensorNode0.app[0] rtt:vector ETV
attr interpolationmode none
attr recordingmode vector
attr title "ping round-trip time"
attr unit s
vector 44 WSN_EnergyEfficient.sensorNode0.app[0] numLost:vector ETV
attr interpolationmode none
attr recordingmode vector
attr title "pings lost"
vector 45 WSN_EnergyEfficient.sensorNode0.app[0] numOutOfOrderArrivals:vector ETV
attr interpolationmode none
attr recordingmode vector
attr title "ping out-of-order arrivals"
vector 46 WSN_EnergyEfficient.sensorNode0.app[0] pingTxSeq:vector ETV
attr interpolationmode none
attr recordingmode vector
attr title "ping tx seq"
vector 47 WSN_EnergyEfficient.sensorNode0.app[0] pingRxSeq:vector ETV
attr interpolationmode none
attr recordingmode vector
attr title "ping rx seq"
vector 48 WSN_EnergyEfficient.sensorNode0.app[1] packetReceived:vector(packetBytes) ETV
attr interpolationmode none
attr recordingmode vector(packetBytes)
attr source packetReceived
attr title "packets received, packetBytes"
vector 49 WSN_EnergyEfficient.sensorNode0.app[1] throughput:vector ETV
attr recordingmode vector
attr source throughput(packetReceived)
attr title throughput
attr unit bps
vector 50 WSN_EnergyEfficient.sensorNode0.app[1] packetSent:vector(packetBytes) ETV
attr interpolationmode none
attr recordingmode vector(packetBytes)
attr source packetSent
attr title "packets sent, packetBytes"
vector 51 WSN_EnergyEfficient.sensorNode0.app[1] rcvdPkLifetime:vector ETV
attr interpolationmode none
attr recordingmode vector
attr source dataAge(packetReceived)
attr title "received packet lifetime"
attr unit s
vector 52 WSN_EnergyEfficient.sensorNode0.app[1] rcvdPkSeqNo:vector ETV
attr interpolationmode none
attr recordingmode vector
attr source appPkSeqNo(packetReceived)
attr title "received packet sequence number"
vector 53 WSN_EnergyEfficient.sensorNode1.energyStorage powerConsumption:vector ETV
attr interpolationmode sample-hold
attr recordingmode vector
attr source powerConsumptionChanged
attr title "Power consumption"
attr unit W
vector 54 WSN_EnergyEfficient.sensorNode1.energyStorage powerGeneration:vector ETV
attr interpolationmode sample-hold
attr recordingmode vector
attr source powerGenerationChanged
attr title "Power generation"
attr unit W
vector 55 WSN_EnergyEfficient.sensorNode1.energyStorage residualEnergyCapacity:vector ETV
attr interpolationmode linear
attr recordingmode vector
attr source residualEnergyCapacityChanged
attr title "Residual energy capacity"
attr unit J
vector 56 WSN_EnergyEfficient.sensorNode1.energyGenerator powerGeneration:vector ETV
attr interpolationmode sample-hold
attr recordingmode vector
attr source powerGenerationChanged
attr title "Power generation"
attr unit W
vector 57 WSN_EnergyEfficient.sensorNode1.lo[0].lo rcvdPkFromHl:vector(packetBytes) ETV
attr interpolationmode none
attr recordingmode vector(packetBytes)
attr source packetReceivedFromUpper
attr title "packets received from higher layer, packetBytes"
vector 58 WSN_EnergyEfficient.sensorNode1.lo[0].lo passedUpPk:vector(packetBytes) ETV
attr interpolationmode none
attr recordingmode vector(packetBytes)
attr source packetSentToUpper
attr title "packets passed to higher layer, packetBytes"
vector 59 WSN_EnergyEfficient.sensorNode1.lo[0] packetDropInterfaceDown:vector(packetBytes) ETV
attr interpolationmode none
attr recordingmode vector(packetBytes)
attr source packetDropReasonIsInterfaceDown(packetDropped)
attr title "packet drops: interface down, packetBytes"
vector 60 WSN_EnergyEfficient.sensorNode1.lo[0] packetDropNoCarrier:vector(packetBytes) ETV
attr interpolationmode none
attr recordingmode vector(packetBytes)
attr source packetDropReasonIsNoCarrier(packetDropped)
attr title "packet drops: no carrier, packetBytes"
vector 61 WSN_EnergyEfficient.sensorNode1.wlan[0].queue queueLength:vector ETV
attr autoWarmupFilter false
attr interpolationmode sample-hold
attr recordingmode vector
attr source "warmup(atomic(constant0(packetPushEnded) + count(packetPushStarted) - count(packetPulled) - count(packetRemoved) - count(packetDropped)))"
attr title "queue length"
attr unit pk
vector 62 WSN_EnergyEfficient.sensorNode1.wlan[0].queue queueBitLength:vector ETV
attr autoWarmupFilter false
attr interpolationmode sample-hold
attr recordingmode vector
attr source "warmup(atomic(constant0(packetPushEnded) + sum(packetLength(packetPushStarted)) - sum(packetLength(packetPulled)) - sum(packetLength(packetRemoved)) - sum(packetLength(packetDropped))))"
attr title "queue bit length"
attr unit b
vector 63 WSN_EnergyEfficient.sensorNode1.wlan[0].queue queueingTime:vector ETV
attr interpolationmode none
attr recordingmode vector
attr source queueingTime(packetPulled)
attr title "queueing times"
attr unit s
vector 64 WSN_EnergyEfficient.sensorNode1.wlan[0].queue incomingPacketLengths:vector ETV
attr interpolationmode none
attr recordingmode vector
attr source packetLength(packetPushStarted)
attr title "incoming packet lengths"
attr unit b
vector 65 WSN_EnergyEfficient.sensorNode1.wlan[0].queue incomingDataRate:vector ETV
attr interpolationmode linear
attr recordingmode vector
attr source throughput(packetPushStarted)
attr title "incoming datarate"
attr unit bps
vector 66 WSN_EnergyEfficient.sensorNode1.wlan[0].queue outgoingPacketLengths:vector ETV
attr interpolationmode none
attr recordingmode vector
attr source packetLength(packetPulled)
attr title "outgoing packet lengths"
attr unit b
vector 67 WSN_EnergyEfficient.sensorNode1.wlan[0].queue outgoingDataRate:vector ETV
attr interpolationmode linear
attr recordingmode vector
attr source throughput(packetPulled)
attr title "outgoing datarate"
attr unit bps
vector 68 WSN_EnergyEfficient.sensorNode1.wlan[0].queue droppedPacketLengthsQueueOverflow:vector ETV
attr interpolationmode none
attr recordingmode vector
attr source packetLength(packetDropReasonIsQueueOverflow(packetDropped))
attr title "dropped packet lengths: queue overflow"
attr unit b
vector 69 WSN_EnergyEfficient.sensorNode1.wlan[0].queue flowQueueingTime:vector ETV
attr interpolationmode none
attr recordingmode vector
attr source queueingTime(demuxFlow(packetPulled))
attr title "flow queueing times"
attr unit s
vector 70 WSN_EnergyEfficient.sensorNode1.wlan[0].queue flowIncomingDataRate:vector ETV
attr interpolationmode linear
attr recordingmode vector
attr source throughput(flowPacketLength(demuxFlow(packetPushStarted)))
attr title "flow specific incoming data rate"
attr unit bps
vector 71 WSN_EnergyEfficient.sensorNode1.wlan[0].queue flowOutgoingDataRate:vector ETV
attr interpolationmode linear
attr recordingmode vector
attr source throughput(flowPacketLength(demuxFlow(packetPulled)))
attr title "flow specific outgoing data rate"
attr unit bps
vector 72 WSN_EnergyEfficient.sensorNode1.wlan[0].mac packetDropNotAddressToUs:vector(packetBytes) ETV
attr interpolationmode none
attr recordingmode vector(packetBytes)
attr source packetDropReasonIsNotAddressedToUs(packetDropped)
attr title "packet drop: not addressed to us, packetBytes"
vector 73 WSN_EnergyEfficient.sensorNode1.wlan[0].mac packetDropIncorrectlyReceived:vector(packetBytes) ETV
attr interpolationmode none
attr recordingmode vector(packetBytes)
attr source packetDropReasonIsIncorrectlyReceived(packetDropped)
attr title "packet drop: incorrectly received, packetBytes"
vector 74 WSN_EnergyEfficient.sensorNode1.wlan[0].mac packetDropQueueOverflow:vector(packetBytes) ETV
attr interpolationmode none
attr recordingmode vector(packetBytes)
attr source packetDropReasonIsQueueOverflow(packetDropped)
attr title "packet drop: queue overflow, packetBytes"
vector 75 WSN_EnergyEfficient.sensorNode1.wlan[0].mac packetDropRetryLimitReached:vector(packetBytes) ETV
attr interpolationmode none
attr recordingmode vector(packetBytes)
attr source packetDropReasonIsRetryLimitReached(packetDropped)
attr title "packet drop: retry limit reached, packetBytes"
vector 76 WSN_EnergyEfficient.sensorNode1.wlan[0].mac packetDropBackoffLimitReached:vector(packetBytes) ETV
attr interpolationmode none
attr recordingmode vector(packetBytes)
attr source packetDropReasonIsCongestion(packetDropped)
attr title "packet drop: backoff limit reached, packetBytes"
vector 77 WSN_EnergyEfficient.sensorNode1.wlan[0].radio.energyConsumer powerConsumption:vector ETV
attr interpolationmode sample-hold
attr recordingmode vector
attr source powerConsumptionChanged
attr title "Power consumption"
attr unit W
vector 78 WSN_EnergyEfficient.sensorNode1.wlan[0].radio radioMode:vector ETV
attr interpolationmode sample-hold
attr recordingmode vector
attr source radioModeChanged
attr title "Radio mode"
vector 79 WSN_EnergyEfficient.sensorNode1.wlan[0].radio receptionState:vector ETV
attr interpolationmode sample-hold
attr recordingmode vector
attr source receptionStateChanged
attr title "Radio reception state"
vector 80 WSN_EnergyEfficient.sensorNode1.wlan[0].radio transmissionState:vector ETV
attr interpolationmode sample-hold
attr recordingmode vector
attr source transmissionStateChanged
attr title "Radio transmission state"
vector 81 WSN_EnergyEfficient.sensorNode1.wlan[0] packetDropInterfaceDown:vector(packetBytes) ETV
attr interpolationmode none
attr recordingmode vector(packetBytes)
attr source packetDropReasonIsInterfaceDown(packetDropped)
attr title "packet drops: interface down, packetBytes"
vector 82 WSN_EnergyEfficient.sensorNode1.wlan[0] packetDropNoCarrier:vector(packetBytes) ETV
attr interpolationmode none
attr recordingmode vector(packetBytes)
attr source packetDropReasonIsNoCarrier(packetDropped)
attr title "packet drops: no carrier, packetBytes"
vector 83 WSN_EnergyEfficient.sensorNode1.ipv4.ip packetDropAddressResolutionFailed:vector(packetBytes) ETV
attr interpolationmode none
attr recordingmode vector(packetBytes)
attr source packetDropReasonIsAddressResolutionFailed(packetDropped)
attr title "packet drop: address resolution failed, packetBytes"
vector 84 WSN_EnergyEfficient.sensorNode1.ipv4.ip packetDropHopLimitReached:vector(packetBytes) ETV
attr interpolationmode none
attr recordingmode vector(packetBytes)
attr source packetDropReasonIsHopLimitReached(packetDropped)
attr title "packet drop: hop limit reached, packetBytes"
vector 85 WSN_EnergyEfficient.sensorNode1.ipv4.ip packetDropForwardingDisabled:vector(packetBytes) ETV
attr interpolationmode none
attr recordingmode vector(packetBytes)
attr source packetDropReasonIsForwardingDisabled(packetDropped)
attr title "packet drop: forwarding disabled, packetBytes"
vector 86 WSN_EnergyEfficient.sensorNode1.ipv4.ip packetDropNoInterfaceFound:vector(packetBytes) ETV
attr interpolationmode none
attr recordingmode vector(packetBytes)
attr source packetDropReasonIsNoInterfaceFound(packetDropped)
attr title "packet drop: no interface found, packetBytes"
vector 87 WSN_EnergyEfficient.sensorNode1.ipv4.ip packetDropNoRouteFound:vector(packetBytes) ETV
attr interpolationmode none
attr recordingmode vector(packetBytes)
attr source packetDropReasonIsNoRouteFound(packetDropped)
attr title "packet drop: no route found, packetBytes"
vector 88 WSN_EnergyEfficient.sensorNode1.ipv4.ip packetDropUndefined:vector(packetBytes) ETV
attr interpolationmode none
attr recordingmode vector(packetBytes)
attr source packetDropReasonIsUndefined(packetDropped)
attr title "packet drop: undefined, packetBytes"
vector 89 WSN_EnergyEfficient.sensorNode1.ipv4.arp arpRequestSent:vector(packetBytes) ETV
attr recordingmode vector(packetBytes)
attr source arpRequestSent
attr title "ARP request sent, packetBytes"
vector 90 WSN_EnergyEfficient.sensorNode1.ipv4.arp arpReplySent:vector(packetBytes) ETV
attr recordingmode vector(packetBytes)
attr source arpReplySent
attr title "ARP replies sent, packetBytes"
vector 91 WSN_EnergyEfficient.sensorNode1.udp packetSent:vector(packetBytes) ETV
attr interpolationmode none
attr recordingmode vector(packetBytes)
attr source packetSent
attr title "packets sent, packetBytes"
vector 92 WSN_EnergyEfficient.sensorNode1.udp packetReceived:vector(packetBytes) ETV
attr interpolationmode none
attr recordingmode vector(packetBytes)
attr source packetReceived
attr title "packets received, packetBytes"
vector 93 WSN_EnergyEfficient.sensorNode1.udp passedUpPk:vector(count) ETV
attr interpolationmode none
attr recordingmode vector(count)
attr source packetSentToUpper
attr title "packets passed up, count"
vector 94 WSN_EnergyEfficient.sensorNode1.udp droppedPkWrongPort:vector(count) ETV
attr interpolationmode none
attr recordingmode vector(count)
attr source packetDropReasonIsNoPortFound(packetDropped)
attr title "packets dropped (wrong port), count"
vector 95 WSN_EnergyEfficient.sensorNode1.udp droppedPkBadChecksum:vector(count) ETV
attr interpolationmode none
attr recordingmode vector(count)
attr source packetDropReasonIsIncorrectlyReceived(packetDropped)
attr title "packets dropped (checksum error), count"
vector 96 WSN_EnergyEfficient.sensorNode1.app[0] rtt:vector ETV
attr interpolationmode none
attr recordingmode vector
attr title "ping round-trip time"
attr unit s
vector 97 WSN_EnergyEfficient.sensorNode1.app[0] numLost:vector ETV
attr interpolationmode none
attr recordingmode vector
attr title "pings lost"
vector 98 WSN_EnergyEfficient.sensorNode1.app[0] numOutOfOrderArrivals:vector ETV
attr interpolationmode none
attr recordingmode vector
attr title "ping out-of-order arrivals"
vector 99 WSN_EnergyEfficient.sensorNode1.app[0] pingTxSeq:vector ETV
attr interpolationmode none
attr recordingmode vector
attr title "ping tx seq"
vector 100 WSN_EnergyEfficient.sensorNode1.app[0] pingRxSeq:vector ETV
attr interpolationmode none
attr recordingmode vector
attr title "ping rx seq"
vector 101 WSN_EnergyEfficient.sensorNode1.app[1] packetReceived:vector(packetBytes) ETV
attr interpolationmode none
attr recordingmode vector(packetBytes)
attr source packetReceived
attr title "packets received, packetBytes"
vector 102 WSN_EnergyEfficient.sensorNode1.app[1] throughput:vector ETV
attr recordingmode vector
attr source throughput(packetReceived)
attr title throughput
attr unit bps
vector 103 WSN_EnergyEfficient.sensorNode1.app[1] packetSent:vector(packetBytes) ETV
attr interpolationmode none
attr recordingmode vector(packetBytes)
attr source packetSent
attr title "packets sent, packetBytes"
vector 104 WSN_EnergyEfficient.sensorNode1.app[1] rcvdPkLifetime:vector ETV
attr interpolationmode none
attr recordingmode vector
attr source dataAge(packetReceived)
attr title "received packet lifetime"
attr unit s
vector 105 WSN_EnergyEfficient.sensorNode1.app[1] rcvdPkSeqNo:vector ETV
attr interpolationmode none
attr recordingmode vector
attr source appPkSeqNo(packetReceived)
attr title "received packet sequence number"
vector 106 WSN_EnergyEfficient.sensorNode2.energyStorage powerConsumption:vector ETV
attr interpolationmode sample-hold
attr recordingmode vector
attr source powerConsumptionChanged
attr title "Power consumption"
attr unit W
vector 107 WSN_EnergyEfficient.sensorNode2.energyStorage powerGeneration:vector ETV
attr interpolationmode sample-hold
attr recordingmode vector
attr source powerGenerationChanged
attr title "Power generation"
attr unit W
vector 108 WSN_EnergyEfficient.sensorNode2.energyStorage residualEnergyCapacity:vector ETV
attr interpolationmode linear
attr recordingmode vector
attr source residualEnergyCapacityChanged
attr title "Residual energy capacity"
attr unit J
vector 109 WSN_EnergyEfficient.sensorNode2.energyGenerator powerGeneration:vector ETV
attr interpolationmode sample-hold
attr recordingmode vector
attr source powerGenerationChanged
attr title "Power generation"
attr unit W
vector 110 WSN_EnergyEfficient.sensorNode2.lo[0].lo rcvdPkFromHl:vector(packetBytes) ETV
attr interpolationmode none
attr recordingmode vector(packetBytes)
attr source packetReceivedFromUpper
attr title "packets received from higher layer, packetBytes"
vector 111 WSN_EnergyEfficient.sensorNode2.lo[0].lo passedUpPk:vector(packetBytes) ETV
attr interpolationmode none
attr recordingmode vector(packetBytes)
attr source packetSentToUpper
attr title "packets passed to higher layer, packetBytes"
vector 112 WSN_EnergyEfficient.sensorNode2.lo[0] packetDropInterfaceDown:vector(packetBytes) ETV
attr interpolationmode none
attr recordingmode vector(packetBytes)
attr source packetDropReasonIsInterfaceDown(packetDropped)
attr title "packet drops: interface down, packetBytes"
vector 113 WSN_EnergyEfficient.sensorNode2.lo[0] packetDropNoCarrier:vector(packetBytes) ETV
attr interpolationmode none
attr recordingmode vector(packetBytes)
attr source packetDropReasonIsNoCarrier(packetDropped)
attr title "packet drops: no carrier, packetBytes"
vector 114 WSN_EnergyEfficient.sensorNode2.wlan[0].queue queueLength:vector ETV
attr autoWarmupFilter false
attr interpolationmode sample-hold
attr recordingmode vector
attr source "warmup(atomic(constant0(packetPushEnded) + count(packetPushStarted) - count(packetPulled) - count(packetRemoved) - count(packetDropped)))"
attr title "queue length"
attr unit pk
vector 115 WSN_EnergyEfficient.sensorNode2.wlan[0].queue queueBitLength:vector ETV
attr autoWarmupFilter false
attr interpolationmode sample-hold
attr recordingmode vector
attr source "warmup(atomic(constant0(packetPushEnded) + sum(packetLength(packetPushStarted)) - sum(packetLength(packetPulled)) - sum(packetLength(packetRemoved)) - sum(packetLength(packetDropped))))"
attr title "queue bit length"
attr unit b
vector 116 WSN_EnergyEfficient.sensorNode2.wlan[0].queue queueingTime:vector ETV
attr interpolationmode none
attr recordingmode vector
attr source queueingTime(packetPulled)
attr title "queueing times"
attr unit s
vector 117 WSN_EnergyEfficient.sensorNode2.wlan[0].queue incomingPacketLengths:vector ETV
attr interpolationmode none
attr recordingmode vector
attr source packetLength(packetPushStarted)
attr title "incoming packet lengths"
attr unit b
vector 118 WSN_EnergyEfficient.sensorNode2.wlan[0].queue incomingDataRate:vector ETV
attr interpolationmode linear
attr recordingmode vector
attr source throughput(packetPushStarted)
attr title "incoming datarate"
attr unit bps
vector 119 WSN_EnergyEfficient.sensorNode2.wlan[0].queue outgoingPacketLengths:vector ETV
attr interpolationmode none
attr recordingmode vector
attr source packetLength(packetPulled)
attr title "outgoing packet lengths"
attr unit b
vector 120 WSN_EnergyEfficient.sensorNode2.wlan[0].queue outgoingDataRate:vector ETV
attr interpolationmode linear
attr recordingmode vector
attr source throughput(packetPulled)
attr title "outgoing datarate"
attr unit bps
vector 121 WSN_EnergyEfficient.sensorNode2.wlan[0].queue droppedPacketLengthsQueueOverflow:vector ETV
attr interpolationmode none
attr recordingmode vector
attr source packetLength(packetDropReasonIsQueueOverflow(packetDropped))
attr title "dropped packet lengths: queue overflow"
attr unit b
vector 122 WSN_EnergyEfficient.sensorNode2.wlan[0].queue flowQueueingTime:vector ETV
attr interpolationmode none
attr recordingmode vector
attr source queueingTime(demuxFlow(packetPulled))
attr title "flow queueing times"
attr unit s
vector 123 WSN_EnergyEfficient.sensorNode2.wlan[0].queue flowIncomingDataRate:vector ETV
attr interpolationmode linear
attr recordingmode vector
attr source throughput(flowPacketLength(demuxFlow(packetPushStarted)))
attr title "flow specific incoming data rate"
attr unit bps
vector 124 WSN_EnergyEfficient.sensorNode2.wlan[0].queue flowOutgoingDataRate:vector ETV
attr interpolationmode linear
attr recordingmode vector
attr source throughput(flowPacketLength(demuxFlow(packetPulled)))
attr title "flow specific outgoing data rate"
attr unit bps
vector 125 WSN_EnergyEfficient.sensorNode2.wlan[0].mac packetDropNotAddressToUs:vector(packetBytes) ETV
attr interpolationmode none
attr recordingmode vector(packetBytes)
attr source packetDropReasonIsNotAddressedToUs(packetDropped)
attr title "packet drop: not addressed to us, packetBytes"
vector 126 WSN_EnergyEfficient.sensorNode2.wlan[0].mac packetDropIncorrectlyReceived:vector(packetBytes) ETV
attr interpolationmode none
attr recordingmode vector(packetBytes)
attr source packetDropReasonIsIncorrectlyReceived(packetDropped)
attr title "packet drop: incorrectly received, packetBytes"
vector 127 WSN_EnergyEfficient.sensorNode2.wlan[0].mac packetDropQueueOverflow:vector(packetBytes) ETV
attr interpolationmode none
attr recordingmode vector(packetBytes)
attr source packetDropReasonIsQueueOverflow(packetDropped)
attr title "packet drop: queue overflow, packetBytes"
vector 128 WSN_EnergyEfficient.sensorNode2.wlan[0].mac packetDropRetryLimitReached:vector(packetBytes) ETV
attr interpolationmode none
attr recordingmode vector(packetBytes)
attr source packetDropReasonIsRetryLimitReached(packetDropped)
attr title "packet drop: retry limit reached, packetBytes"
vector 129 WSN_EnergyEfficient.sensorNode2.wlan[0].mac packetDropBackoffLimitReached:vector(packetBytes) ETV
attr interpolationmode none
attr recordingmode vector(packetBytes)
attr source packetDropReasonIsCongestion(packetDropped)
attr title "packet drop: backoff limit reached, packetBytes"
vector 130 WSN_EnergyEfficient.sensorNode2.wlan[0].radio.energyConsumer powerConsumption:vector ETV
attr interpolationmode sample-hold
attr recordingmode vector
attr source powerConsumptionChanged
attr title "Power consumption"
attr unit W
vector 131 WSN_EnergyEfficient.sensorNode2.wlan[0].radio radioMode:vector ETV
attr interpolationmode sample-hold
attr recordingmode vector
attr source radioModeChanged
attr title "Radio mode"
vector 132 WSN_EnergyEfficient.sensorNode2.wlan[0].radio receptionState:vector ETV
attr interpolationmode sample-hold
attr recordingmode vector
attr source receptionStateChanged
attr title "Radio reception state"
vector 133 WSN_EnergyEfficient.sensorNode2.wlan[0].radio transmissionState:vector ETV
attr interpolationmode sample-hold
attr recordingmode vector
attr source transmissionStateChanged
attr title "Radio transmission state"
vector 134 WSN_EnergyEfficient.sensorNode2.wlan[0] packetDropInterfaceDown:vector(packetBytes) ETV
attr interpolationmode none
attr recordingmode vector(packetBytes)
attr source packetDropReasonIsInterfaceDown(packetDropped)
attr title "packet drops: interface down, packetBytes"
vector 135 WSN_EnergyEfficient.sensorNode2.wlan[0] packetDropNoCarrier:vector(packetBytes) ETV
attr interpolationmode none
attr recordingmode vector(packetBytes)
attr source packetDropReasonIsNoCarrier(packetDropped)
attr title "packet drops: no carrier, packetBytes"
vector 136 WSN_EnergyEfficient.sensorNode2.ipv4.ip packetDropAddressResolutionFailed:vector(packetBytes) ETV
attr interpolationmode none
attr recordingmode vector(packetBytes)
attr source packetDropReasonIsAddressResolutionFailed(packetDropped)
attr title "packet drop: address resolution failed, packetBytes"
vector 137 WSN_EnergyEfficient.sensorNode2.ipv4.ip packetDropHopLimitReached:vector(packetBytes) ETV
attr interpolationmode none
attr recordingmode vector(packetBytes)
attr source packetDropReasonIsHopLimitReached(packetDropped)
attr title "packet drop: hop limit reached, packetBytes"
vector 138 WSN_EnergyEfficient.sensorNode2.ipv4.ip packetDropForwardingDisabled:vector(packetBytes) ETV
attr interpolationmode none
attr recordingmode vector(packetBytes)
attr source packetDropReasonIsForwardingDisabled(packetDropped)
attr title "packet drop: forwarding disabled, packetBytes"
vector 139 WSN_EnergyEfficient.sensorNode2.ipv4.ip packetDropNoInterfaceFound:vector(packetBytes) ETV
attr interpolationmode none
attr recordingmode vector(packetBytes)
attr source packetDropReasonIsNoInterfaceFound(packetDropped)
attr title "packet drop: no interface found, packetBytes"
vector 140 WSN_EnergyEfficient.sensorNode2.ipv4.ip packetDropNoRouteFound:vector(packetBytes) ETV
attr interpolationmode none
attr recordingmode vector(packetBytes)
attr source packetDropReasonIsNoRouteFound(packetDropped)
attr title "packet drop: no route found, packetBytes"
vector 141 WSN_EnergyEfficient.sensorNode2.ipv4.ip packetDropUndefined:vector(packetBytes) ETV
attr interpolationmode none
attr recordingmode vector(packetBytes)
attr source packetDropReasonIsUndefined(packetDropped)
attr title "packet drop: undefined, packetBytes"
vector 142 WSN_EnergyEfficient.sensorNode2.ipv4.arp arpRequestSent:vector(packetBytes) ETV
attr recordingmode vector(packetBytes)
attr source arpRequestSent
attr title "ARP request sent, packetBytes"
vector 143 WSN_EnergyEfficient.sensorNode2.ipv4.arp arpReplySent:vector(packetBytes) ETV
attr recordingmode vector(packetBytes)
attr source arpReplySent
attr title "ARP replies sent, packetBytes"
vector 144 WSN_EnergyEfficient.sensorNode2.udp packetSent:vector(packetBytes) ETV
attr interpolationmode none
attr recordingmode vector(packetBytes)
attr source packetSent
attr title "packets sent, packetBytes"
vector 145 WSN_EnergyEfficient.sensorNode2.udp packetReceived:vector(packetBytes) ETV
attr interpolationmode none
attr recordingmode vector(packetBytes)
attr source packetReceived
attr title "packets received, packetBytes"
vector 146 WSN_EnergyEfficient.sensorNode2.udp passedUpPk:vector(count) ETV
attr interpolationmode none
attr recordingmode vector(count)
attr source packetSentToUpper
attr title "packets passed up, count"
vector 147 WSN_EnergyEfficient.sensorNode2.udp droppedPkWrongPort:vector(count) ETV
attr interpolationmode none
attr recordingmode vector(count)
attr source packetDropReasonIsNoPortFound(packetDropped)
attr title "packets dropped (wrong port), count"
vector 148 WSN_EnergyEfficient.sensorNode2.udp droppedPkBadChecksum:vector(count) ETV
attr interpolationmode none
attr recordingmode vector(count)
attr source packetDropReasonIsIncorrectlyReceived(packetDropped)
attr title "packets dropped (checksum error), count"
vector 149 WSN_EnergyEfficient.sensorNode2.app[0] rtt:vector ETV
attr interpolationmode none
attr recordingmode vector
attr title "ping round-trip time"
attr unit s
vector 150 WSN_EnergyEfficient.sensorNode2.app[0] numLost:vector ETV
attr interpolationmode none
attr recordingmode vector
attr title "pings lost"
vector 151 WSN_EnergyEfficient.sensorNode2.app[0] numOutOfOrderArrivals:vector ETV
attr interpolationmode none
attr recordingmode vector
attr title "ping out-of-order arrivals"
vector 152 WSN_EnergyEfficient.sensorNode2.app[0] pingTxSeq:vector ETV
attr interpolationmode none
attr recordingmode vector
attr title "ping tx seq"
vector 153 WSN_EnergyEfficient.sensorNode2.app[0] pingRxSeq:vector ETV
attr interpolationmode none
attr recordingmode vector
attr title "ping rx seq"
vector 154 WSN_EnergyEfficient.sensorNode2.app[1] packetReceived:vector(packetBytes) ETV
attr interpolationmode none
attr recordingmode vector(packetBytes)
attr source packetReceived
attr title "packets received, packetBytes"
vector 155 WSN_EnergyEfficient.sensorNode2.app[1] throughput:vector ETV
attr recordingmode vector
attr source throughput(packetReceived)
attr title throughput
attr unit bps
vector 156 WSN_EnergyEfficient.sensorNode2.app[1] packetSent:vector(packetBytes) ETV
attr interpolationmode none
attr recordingmode vector(packetBytes)
attr source packetSent
attr title "packets sent, packetBytes"
vector 157 WSN_EnergyEfficient.sensorNode2.app[1] rcvdPkLifetime:vector ETV
attr interpolationmode none
attr recordingmode vector
attr source dataAge(packetReceived)
attr title "received packet lifetime"
attr unit s
vector 158 WSN_EnergyEfficient.sensorNode2.app[1] rcvdPkSeqNo:vector ETV
attr interpolationmode none
attr recordingmode vector
attr source appPkSeqNo(packetReceived)
attr title "received packet sequence number"
vector 159 WSN_EnergyEfficient.sensorNode3.energyStorage powerConsumption:vector ETV
attr interpolationmode sample-hold
attr recordingmode vector
attr source powerConsumptionChanged
attr title "Power consumption"
attr unit W
vector 160 WSN_EnergyEfficient.sensorNode3.energyStorage powerGeneration:vector ETV
attr interpolationmode sample-hold
attr recordingmode vector
attr source powerGenerationChanged
attr title "Power generation"
attr unit W
vector 161 WSN_EnergyEfficient.sensorNode3.energyStorage residualEnergyCapacity:vector ETV
attr interpolationmode linear
attr recordingmode vector
attr source residualEnergyCapacityChanged
attr title "Residual energy capacity"
attr unit J
vector 162 WSN_EnergyEfficient.sensorNode3.energyGenerator powerGeneration:vector ETV
attr interpolationmode sample-hold
attr recordingmode vector
attr source powerGenerationChanged
attr title "Power generation"
attr unit W
vector 163 WSN_EnergyEfficient.sensorNode3.lo[0].lo rcvdPkFromHl:vector(packetBytes) ETV
attr interpolationmode none
attr recordingmode vector(packetBytes)
attr source packetReceivedFromUpper
attr title "packets received from higher layer, packetBytes"
vector 164 WSN_EnergyEfficient.sensorNode3.lo[0].lo passedUpPk:vector(packetBytes) ETV
attr interpolationmode none
attr recordingmode vector(packetBytes)
attr source packetSentToUpper
attr title "packets passed to higher layer, packetBytes"
vector 165 WSN_EnergyEfficient.sensorNode3.lo[0] packetDropInterfaceDown:vector(packetBytes) ETV
attr interpolationmode none
attr recordingmode vector(packetBytes)
attr source packetDropReasonIsInterfaceDown(packetDropped)
attr title "packet drops: interface down, packetBytes"
vector 166 WSN_EnergyEfficient.sensorNode3.lo[0] packetDropNoCarrier:vector(packetBytes) ETV
attr interpolationmode none
attr recordingmode vector(packetBytes)
attr source packetDropReasonIsNoCarrier(packetDropped)
attr title "packet drops: no carrier, packetBytes"
vector 167 WSN_EnergyEfficient.sensorNode3.wlan[0].queue queueLength:vector ETV
attr autoWarmupFilter false
attr interpolationmode sample-hold
attr recordingmode vector
attr source "warmup(atomic(constant0(packetPushEnded) + count(packetPushStarted) - count(packetPulled) - count(packetRemoved) - count(packetDropped)))"
attr title "queue length"
attr unit pk
vector 168 WSN_EnergyEfficient.sensorNode3.wlan[0].queue queueBitLength:vector ETV
attr autoWarmupFilter false
attr interpolationmode sample-hold
attr recordingmode vector
attr source "warmup(atomic(constant0(packetPushEnded) + sum(packetLength(packetPushStarted)) - sum(packetLength(packetPulled)) - sum(packetLength(packetRemoved)) - sum(packetLength(packetDropped))))"
attr title "queue bit length"
attr unit b
vector 169 WSN_EnergyEfficient.sensorNode3.wlan[0].queue queueingTime:vector ETV
attr interpolationmode none
attr recordingmode vector
attr source queueingTime(packetPulled)
attr title "queueing times"
attr unit s
vector 170 WSN_EnergyEfficient.sensorNode3.wlan[0].queue incomingPacketLengths:vector ETV
attr interpolationmode none
attr recordingmode vector
attr source packetLength(packetPushStarted)
attr title "incoming packet lengths"
attr unit b
vector 171 WSN_EnergyEfficient.sensorNode3.wlan[0].queue incomingDataRate:vector ETV
attr interpolationmode linear
attr recordingmode vector
attr source throughput(packetPushStarted)
attr title "incoming datarate"
attr unit bps
vector 172 WSN_EnergyEfficient.sensorNode3.wlan[0].queue outgoingPacketLengths:vector ETV
attr interpolationmode none
attr recordingmode vector
attr source packetLength(packetPulled)
attr title "outgoing packet lengths"
attr unit b
vector 173 WSN_EnergyEfficient.sensorNode3.wlan[0].queue outgoingDataRate:vector ETV
attr interpolationmode linear
attr recordingmode vector
attr source throughput(packetPulled)
attr title "outgoing datarate"
attr unit bps
vector 174 WSN_EnergyEfficient.sensorNode3.wlan[0].queue droppedPacketLengthsQueueOverflow:vector ETV
attr interpolationmode none
attr recordingmode vector
attr source packetLength(packetDropReasonIsQueueOverflow(packetDropped))
attr title "dropped packet lengths: queue overflow"
attr unit b
vector 175 WSN_EnergyEfficient.sensorNode3.wlan[0].queue flowQueueingTime:vector ETV
attr interpolationmode none
attr recordingmode vector
attr source queueingTime(demuxFlow(packetPulled))
attr title "flow queueing times"
attr unit s
vector 176 WSN_EnergyEfficient.sensorNode3.wlan[0].queue flowIncomingDataRate:vector ETV
attr interpolationmode linear
attr recordingmode vector
attr source throughput(flowPacketLength(demuxFlow(packetPushStarted)))
attr title "flow specific incoming data rate"
attr unit bps
vector 177 WSN_EnergyEfficient.sensorNode3.wlan[0].queue flowOutgoingDataRate:vector ETV
attr interpolationmode linear
attr recordingmode vector
attr source throughput(flowPacketLength(demuxFlow(packetPulled)))
attr title "flow specific outgoing data rate"
attr unit bps
vector 178 WSN_EnergyEfficient.sensorNode3.wlan[0].mac packetDropNotAddressToUs:vector(packetBytes) ETV
attr interpolationmode none
attr recordingmode vector(packetBytes)
attr source packetDropReasonIsNotAddressedToUs(packetDropped)
attr title "packet drop: not addressed to us, packetBytes"
vector 179 WSN_EnergyEfficient.sensorNode3.wlan[0].mac packetDropIncorrectlyReceived:vector(packetBytes) ETV
attr interpolationmode none
attr recordingmode vector(packetBytes)
attr source packetDropReasonIsIncorrectlyReceived(packetDropped)
attr title "packet drop: incorrectly received, packetBytes"
vector 180 WSN_EnergyEfficient.sensorNode3.wlan[0].mac packetDropQueueOverflow:vector(packetBytes) ETV
attr interpolationmode none
attr recordingmode vector(packetBytes)
attr source packetDropReasonIsQueueOverflow(packetDropped)
attr title "packet drop: queue overflow, packetBytes"
vector 181 WSN_EnergyEfficient.sensorNode3.wlan[0].mac packetDropRetryLimitReached:vector(packetBytes) ETV
attr interpolationmode none
attr recordingmode vector(packetBytes)
attr source packetDropReasonIsRetryLimitReached(packetDropped)
attr title "packet drop: retry limit reached, packetBytes"
vector 182 WSN_EnergyEfficient.sensorNode3.wlan[0].mac packetDropBackoffLimitReached:vector(packetBytes) ETV
attr interpolationmode none
attr recordingmode vector(packetBytes)
attr source packetDropReasonIsCongestion(packetDropped)
attr title "packet drop: backoff limit reached, packetBytes"
vector 183 WSN_EnergyEfficient.sensorNode3.wlan[0].radio.energyConsumer powerConsumption:vector ETV
attr interpolationmode sample-hold
attr recordingmode vector
attr source powerConsumptionChanged
attr title "Power consumption"
attr unit W
vector 184 WSN_EnergyEfficient.sensorNode3.wlan[0].radio radioMode:vector ETV
attr interpolationmode sample-hold
attr recordingmode vector
attr source radioModeChanged
attr title "Radio mode"
vector 185 WSN_EnergyEfficient.sensorNode3.wlan[0].radio receptionState:vector ETV
attr interpolationmode sample-hold
attr recordingmode vector
attr source receptionStateChanged
attr title "Radio reception state"
vector 186 WSN_EnergyEfficient.sensorNode3.wlan[0].radio transmissionState:vector ETV
attr interpolationmode sample-hold
attr recordingmode vector
attr source transmissionStateChanged
attr title "Radio transmission state"
vector 187 WSN_EnergyEfficient.sensorNode3.wlan[0] packetDropInterfaceDown:vector(packetBytes) ETV
attr interpolationmode none
attr recordingmode vector(packetBytes)
attr source packetDropReasonIsInterfaceDown(packetDropped)
attr title "packet drops: interface down, packetBytes"
vector 188 WSN_EnergyEfficient.sensorNode3.wlan[0] packetDropNoCarrier:vector(packetBytes) ETV
attr interpolationmode none
attr recordingmode vector(packetBytes)
attr source packetDropReasonIsNoCarrier(packetDropped)
attr title "packet drops: no carrier, packetBytes"
vector 189 WSN_EnergyEfficient.sensorNode3.ipv4.ip packetDropAddressResolutionFailed:vector(packetBytes) ETV
attr interpolationmode none
attr recordingmode vector(packetBytes)
attr source packetDropReasonIsAddressResolutionFailed(packetDropped)
attr title "packet drop: address resolution failed, packetBytes"
vector 190 WSN_EnergyEfficient.sensorNode3.ipv4.ip packetDropHopLimitReached:vector(packetBytes) ETV
attr interpolationmode none
attr recordingmode vector(packetBytes)
attr source packetDropReasonIsHopLimitReached(packetDropped)
attr title "packet drop: hop limit reached, packetBytes"
vector 191 WSN_EnergyEfficient.sensorNode3.ipv4.ip packetDropForwardingDisabled:vector(packetBytes) ETV
attr interpolationmode none
attr recordingmode vector(packetBytes)
attr source packetDropReasonIsForwardingDisabled(packetDropped)
attr title "packet drop: forwarding disabled, packetBytes"
vector 192 WSN_EnergyEfficient.sensorNode3.ipv4.ip packetDropNoInterfaceFound:vector(packetBytes) ETV
attr interpolationmode none
attr recordingmode vector(packetBytes)
attr source packetDropReasonIsNoInterfaceFound(packetDropped)
attr title "packet drop: no interface found, packetBytes"
vector 193 WSN_EnergyEfficient.sensorNode3.ipv4.ip packetDropNoRouteFound:vector(packetBytes) ETV
attr interpolationmode none
attr recordingmode vector(packetBytes)
attr source packetDropReasonIsNoRouteFound(packetDropped)
attr title "packet drop: no route found, packetBytes"
vector 194 WSN_EnergyEfficient.sensorNode3.ipv4.ip packetDropUndefined:vector(packetBytes) ETV
attr interpolationmode none
attr recordingmode vector(packetBytes)
attr source packetDropReasonIsUndefined(packetDropped)
attr title "packet drop: undefined, packetBytes"
vector 195 WSN_EnergyEfficient.sensorNode3.ipv4.arp arpRequestSent:vector(packetBytes) ETV
attr recordingmode vector(packetBytes)
attr source arpRequestSent
attr title "ARP request sent, packetBytes"
vector 196 WSN_EnergyEfficient.sensorNode3.ipv4.arp arpReplySent:vector(packetBytes) ETV
attr recordingmode vector(packetBytes)
attr source arpReplySent
attr title "ARP replies sent, packetBytes"
vector 197 WSN_EnergyEfficient.sensorNode3.udp packetSent:vector(packetBytes) ETV
attr interpolationmode none
attr recordingmode vector(packetBytes)
attr source packetSent
attr title "packets sent, packetBytes"
vector 198 WSN_EnergyEfficient.sensorNode3.udp packetReceived:vector(packetBytes) ETV
attr interpolationmode none
attr recordingmode vector(packetBytes)
attr source packetReceived
attr title "packets received, packetBytes"
vector 199 WSN_EnergyEfficient.sensorNode3.udp passedUpPk:vector(count) ETV
attr interpolationmode none
attr recordingmode vector(count)
attr source packetSentToUpper
attr title "packets passed up, count"
vector 200 WSN_EnergyEfficient.sensorNode3.udp droppedPkWrongPort:vector(count) ETV
attr interpolationmode none
attr recordingmode vector(count)
attr source packetDropReasonIsNoPortFound(packetDropped)
attr title "packets dropped (wrong port), count"
vector 201 WSN_EnergyEfficient.sensorNode3.udp droppedPkBadChecksum:vector(count) ETV
attr interpolationmode none
attr recordingmode vector(count)
attr source packetDropReasonIsIncorrectlyReceived(packetDropped)
attr title "packets dropped (checksum error), count"
vector 202 WSN_EnergyEfficient.sensorNode3.app[0] rtt:vector ETV
attr interpolationmode none
attr recordingmode vector
attr title "ping round-trip time"
attr unit s
vector 203 WSN_EnergyEfficient.sensorNode3.app[0] numLost:vector ETV
attr interpolationmode none
attr recordingmode vector
attr title "pings lost"
vector 204 WSN_EnergyEfficient.sensorNode3.app[0] numOutOfOrderArrivals:vector ETV
attr interpolationmode none
attr recordingmode vector
attr title "ping out-of-order arrivals"
vector 205 WSN_EnergyEfficient.sensorNode3.app[0] pingTxSeq:vector ETV
attr interpolationmode none
attr recordingmode vector
attr title "ping tx seq"
vector 206 WSN_EnergyEfficient.sensorNode3.app[0] pingRxSeq:vector ETV
attr interpolationmode none
attr recordingmode vector
attr title "ping rx seq"
vector 207 WSN_EnergyEfficient.sensorNode3.app[1] packetReceived:vector(packetBytes) ETV
attr interpolationmode none
attr recordingmode vector(packetBytes)
attr source packetReceived
attr title "packets received, packetBytes"
vector 208 WSN_EnergyEfficient.sensorNode3.app[1] throughput:vector ETV
attr recordingmode vector
attr source throughput(packetReceived)
attr title throughput
attr unit bps
vector 209 WSN_EnergyEfficient.sensorNode3.app[1] packetSent:vector(packetBytes) ETV
attr interpolationmode none
attr recordingmode vector(packetBytes)
attr source packetSent
attr title "packets sent, packetBytes"
vector 210 WSN_EnergyEfficient.sensorNode3.app[1] rcvdPkLifetime:vector ETV
attr interpolationmode none
attr recordingmode vector
attr source dataAge(packetReceived)
attr title "received packet lifetime"
attr unit s
vector 211 WSN_EnergyEfficient.sensorNode3.app[1] rcvdPkSeqNo:vector ETV
attr interpolationmode none
attr recordingmode vector
attr source appPkSeqNo(packetReceived)
attr title "received packet sequence number"
vector 212 WSN_EnergyEfficient.sensorNode4.energyStorage powerConsumption:vector ETV
attr interpolationmode sample-hold
attr recordingmode vector
attr source powerConsumptionChanged
attr title "Power consumption"
attr unit W
vector 213 WSN_EnergyEfficient.sensorNode4.energyStorage powerGeneration:vector ETV
attr interpolationmode sample-hold
attr recordingmode vector
attr source powerGenerationChanged
attr title "Power generation"
attr unit W
vector 214 WSN_EnergyEfficient.sensorNode4.energyStorage residualEnergyCapacity:vector ETV
attr interpolationmode linear
attr recordingmode vector
attr source residualEnergyCapacityChanged
attr title "Residual energy capacity"
attr unit J
vector 215 WSN_EnergyEfficient.sensorNode4.energyGenerator powerGeneration:vector ETV
attr interpolationmode sample-hold
attr recordingmode vector
attr source powerGenerationChanged
attr title "Power generation"
attr unit W
vector 216 WSN_EnergyEfficient.sensorNode4.lo[0].lo rcvdPkFromHl:vector(packetBytes) ETV
attr interpolationmode none
attr recordingmode vector(packetBytes)
attr source packetReceivedFromUpper
attr title "packets received from higher layer, packetBytes"
vector 217 WSN_EnergyEfficient.sensorNode4.lo[0].lo passedUpPk:vector(packetBytes) ETV
attr interpolationmode none
attr recordingmode vector(packetBytes)
attr source packetSentToUpper
attr title "packets passed to higher layer, packetBytes"
vector 218 WSN_EnergyEfficient.sensorNode4.lo[0] packetDropInterfaceDown:vector(packetBytes) ETV
attr interpolationmode none
attr recordingmode vector(packetBytes)
attr source packetDropReasonIsInterfaceDown(packetDropped)
attr title "packet drops: interface down, packetBytes"
vector 219 WSN_EnergyEfficient.sensorNode4.lo[0] packetDropNoCarrier:vector(packetBytes) ETV
attr interpolationmode none
attr recordingmode vector(packetBytes)
attr source packetDropReasonIsNoCarrier(packetDropped)
attr title "packet drops: no carrier, packetBytes"
vector 220 WSN_EnergyEfficient.sensorNode4.wlan[0].queue queueLength:vector ETV
attr autoWarmupFilter false
attr interpolationmode sample-hold
attr recordingmode vector
attr source "warmup(atomic(constant0(packetPushEnded) + count(packetPushStarted) - count(packetPulled) - count(packetRemoved) - count(packetDropped)))"
attr title "queue length"
attr unit pk
vector 221 WSN_EnergyEfficient.sensorNode4.wlan[0].queue queueBitLength:vector ETV
attr autoWarmupFilter false
attr interpolationmode sample-hold
attr recordingmode vector
attr source "warmup(atomic(constant0(packetPushEnded) + sum(packetLength(packetPushStarted)) - sum(packetLength(packetPulled)) - sum(packetLength(packetRemoved)) - sum(packetLength(packetDropped))))"
attr title "queue bit length"
attr unit b
vector 222 WSN_EnergyEfficient.sensorNode4.wlan[0].queue queueingTime:vector ETV
attr interpolationmode none
attr recordingmode vector
attr source queueingTime(packetPulled)
attr title "queueing times"
attr unit s
vector 223 WSN_EnergyEfficient.sensorNode4.wlan[0].queue incomingPacketLengths:vector ETV
attr interpolationmode none
attr recordingmode vector
attr source packetLength(packetPushStarted)
attr title "incoming packet lengths"
attr unit b
vector 224 WSN_EnergyEfficient.sensorNode4.wlan[0].queue incomingDataRate:vector ETV
attr interpolationmode linear
attr recordingmode vector
attr source throughput(packetPushStarted)
attr title "incoming datarate"
attr unit bps
vector 225 WSN_EnergyEfficient.sensorNode4.wlan[0].queue outgoingPacketLengths:vector ETV
attr interpolationmode none
attr recordingmode vector
attr source packetLength(packetPulled)
attr title "outgoing packet lengths"
attr unit b
vector 226 WSN_EnergyEfficient.sensorNode4.wlan[0].queue outgoingDataRate:vector ETV
attr interpolationmode linear
attr recordingmode vector
attr source throughput(packetPulled)
attr title "outgoing datarate"
attr unit bps
vector 227 WSN_EnergyEfficient.sensorNode4.wlan[0].queue droppedPacketLengthsQueueOverflow:vector ETV
attr interpolationmode none
attr recordingmode vector
attr source packetLength(packetDropReasonIsQueueOverflow(packetDropped))
attr title "dropped packet lengths: queue overflow"
attr unit b
vector 228 WSN_EnergyEfficient.sensorNode4.wlan[0].queue flowQueueingTime:vector ETV
attr interpolationmode none
attr recordingmode vector
attr source queueingTime(demuxFlow(packetPulled))
attr title "flow queueing times"
attr unit s
vector 229 WSN_EnergyEfficient.sensorNode4.wlan[0].queue flowIncomingDataRate:vector ETV
attr interpolationmode linear
attr recordingmode vector
attr source throughput(flowPacketLength(demuxFlow(packetPushStarted)))
attr title "flow specific incoming data rate"
attr unit bps
vector 230 WSN_EnergyEfficient.sensorNode4.wlan[0].queue flowOutgoingDataRate:vector ETV
attr interpolationmode linear
attr recordingmode vector
attr source throughput(flowPacketLength(demuxFlow(packetPulled)))
attr title "flow specific outgoing data rate"
attr unit bps
vector 231 WSN_EnergyEfficient.sensorNode4.wlan[0].mac packetDropNotAddressToUs:vector(packetBytes) ETV
attr interpolationmode none
attr recordingmode vector(packetBytes)
attr source packetDropReasonIsNotAddressedToUs(packetDropped)
attr title "packet drop: not addressed to us, packetBytes"
vector 232 WSN_EnergyEfficient.sensorNode4.wlan[0].mac packetDropIncorrectlyReceived:vector(packetBytes) ETV
attr interpolationmode none
attr recordingmode vector(packetBytes)
attr source packetDropReasonIsIncorrectlyReceived(packetDropped)
attr title "packet drop: incorrectly received, packetBytes"
vector 233 WSN_EnergyEfficient.sensorNode4.wlan[0].mac packetDropQueueOverflow:vector(packetBytes) ETV
attr interpolationmode none
attr recordingmode vector(packetBytes)
attr source packetDropReasonIsQueueOverflow(packetDropped)
attr title "packet drop: queue overflow, packetBytes"
vector 234 WSN_EnergyEfficient.sensorNode4.wlan[0].mac packetDropRetryLimitReached:vector(packetBytes) ETV
attr interpolationmode none
attr recordingmode vector(packetBytes)
attr source packetDropReasonIsRetryLimitReached(packetDropped)
attr title "packet drop: retry limit reached, packetBytes"
vector 235 WSN_EnergyEfficient.sensorNode4.wlan[0].mac packetDropBackoffLimitReached:vector(packetBytes) ETV
attr interpolationmode none
attr recordingmode vector(packetBytes)
attr source packetDropReasonIsCongestion(packetDropped)
attr title "packet drop: backoff limit reached, packetBytes"
vector 236 WSN_EnergyEfficient.sensorNode4.wlan[0].radio.energyConsumer powerConsumption:vector ETV
attr interpolationmode sample-hold
attr recordingmode vector
attr source powerConsumptionChanged
attr title "Power consumption"
attr unit W
vector 237 WSN_EnergyEfficient.sensorNode4.wlan[0].radio radioMode:vector ETV
attr interpolationmode sample-hold
attr recordingmode vector
attr source radioModeChanged
attr title "Radio mode"
vector 238 WSN_EnergyEfficient.sensorNode4.wlan[0].radio receptionState:vector ETV
attr interpolationmode sample-hold
attr recordingmode vector
attr source receptionStateChanged
attr title "Radio reception state"
vector 239 WSN_EnergyEfficient.sensorNode4.wlan[0].radio transmissionState:vector ETV
attr interpolationmode sample-hold
attr recordingmode vector
attr source transmissionStateChanged
attr title "Radio transmission state"
vector 240 WSN_EnergyEfficient.sensorNode4.wlan[0] packetDropInterfaceDown:vector(packetBytes) ETV
attr interpolationmode none
attr recordingmode vector(packetBytes)
attr source packetDropReasonIsInterfaceDown(packetDropped)
attr title "packet drops: interface down, packetBytes"
vector 241 WSN_EnergyEfficient.sensorNode4.wlan[0] packetDropNoCarrier:vector(packetBytes) ETV
attr interpolationmode none
attr recordingmode vector(packetBytes)
attr source packetDropReasonIsNoCarrier(packetDropped)
attr title "packet drops: no carrier, packetBytes"
vector 242 WSN_EnergyEfficient.sensorNode4.ipv4.ip packetDropAddressResolutionFailed:vector(packetBytes) ETV
attr interpolationmode none
attr recordingmode vector(packetBytes)
attr source packetDropReasonIsAddressResolutionFailed(packetDropped)
attr title "packet drop: address resolution failed, packetBytes"
vector 243 WSN_EnergyEfficient.sensorNode4.ipv4.ip packetDropHopLimitReached:vector(packetBytes) ETV
attr interpolationmode none
attr recordingmode vector(packetBytes)
attr source packetDropReasonIsHopLimitReached(packetDropped)
attr title "packet drop: hop limit reached, packetBytes"
vector 244 WSN_EnergyEfficient.sensorNode4.ipv4.ip packetDropForwardingDisabled:vector(packetBytes) ETV
attr interpolationmode none
attr recordingmode vector(packetBytes)
attr source packetDropReasonIsForwardingDisabled(packetDropped)
attr title "packet drop: forwarding disabled, packetBytes"
vector 245 WSN_EnergyEfficient.sensorNode4.ipv4.ip packetDropNoInterfaceFound:vector(packetBytes) ETV
attr interpolationmode none
attr recordingmode vector(packetBytes)
attr source packetDropReasonIsNoInterfaceFound(packetDropped)
attr title "packet drop: no interface found, packetBytes"
vector 246 WSN_EnergyEfficient.sensorNode4.ipv4.ip packetDropNoRouteFound:vector(packetBytes) ETV
attr interpolationmode none
attr recordingmode vector(packetBytes)
attr source packetDropReasonIsNoRouteFound(packetDropped)
attr title "packet drop: no route found, packetBytes"
vector 247 WSN_EnergyEfficient.sensorNode4.ipv4.ip packetDropUndefined:vector(packetBytes) ETV
attr interpolationmode none
attr recordingmode vector(packetBytes)
attr source packetDropReasonIsUndefined(packetDropped)
attr title "packet drop: undefined, packetBytes"
vector 248 WSN_EnergyEfficient.sensorNode4.ipv4.arp arpRequestSent:vector(packetBytes) ETV
attr recordingmode vector(packetBytes)
attr source arpRequestSent
attr title "ARP request sent, packetBytes"
vector 249 WSN_EnergyEfficient.sensorNode4.ipv4.arp arpReplySent:vector(packetBytes) ETV
attr recordingmode vector(packetBytes)
attr source arpReplySent
attr title "ARP replies sent, packetBytes"
vector 250 WSN_EnergyEfficient.sensorNode4.udp packetSent:vector(packetBytes) ETV
attr interpolationmode none
attr recordingmode vector(packetBytes)
attr source packetSent
attr title "packets sent, packetBytes"
vector 251 WSN_EnergyEfficient.sensorNode4.udp packetReceived:vector(packetBytes) ETV
attr interpolationmode none
attr recordingmode vector(packetBytes)
attr source packetReceived
attr title "packets received, packetBytes"
vector 252 WSN_EnergyEfficient.sensorNode4.udp passedUpPk:vector(count) ETV
attr interpolationmode none
attr recordingmode vector(count)
attr source packetSentToUpper
attr title "packets passed up, count"
vector 253 WSN_EnergyEfficient.sensorNode4.udp droppedPkWrongPort:vector(count) ETV
attr interpolationmode none
attr recordingmode vector(count)
attr source packetDropReasonIsNoPortFound(packetDropped)
attr title "packets dropped (wrong port), count"
vector 254 WSN_EnergyEfficient.sensorNode4.udp droppedPkBadChecksum:vector(count) ETV
attr interpolationmode none
attr recordingmode vector(count)
attr source packetDropReasonIsIncorrectlyReceived(packetDropped)
attr title "packets dropped (checksum error), count"
vector 255 WSN_EnergyEfficient.sensorNode4.app[0] rtt:vector ETV
attr interpolationmode none
attr recordingmode vector
attr title "ping round-trip time"
attr unit s
vector 256 WSN_EnergyEfficient.sensorNode4.app[0] numLost:vector ETV
attr interpolationmode none
attr recordingmode vector
attr title "pings lost"
vector 257 WSN_EnergyEfficient.sensorNode4.app[0] numOutOfOrderArrivals:vector ETV
attr interpolationmode none
attr recordingmode vector
attr title "ping out-of-order arrivals"
vector 258 WSN_EnergyEfficient.sensorNode4.app[0] pingTxSeq:vector ETV
attr interpolationmode none
attr recordingmode vector
attr title "ping tx seq"
vector 259 WSN_EnergyEfficient.sensorNode4.app[0] pingRxSeq:vector ETV
attr interpolationmode none
attr recordingmode vector
attr title "ping rx seq"
vector 260 WSN_EnergyEfficient.sensorNode4.app[1] packetReceived:vector(packetBytes) ETV
attr interpolationmode none
attr recordingmode vector(packetBytes)
attr source packetReceived
attr title "packets received, packetBytes"
vector 261 WSN_EnergyEfficient.sensorNode4.app[1] throughput:vector ETV
attr recordingmode vector
attr source throughput(packetReceived)
attr title throughput
attr unit bps
vector 262 WSN_EnergyEfficient.sensorNode4.app[1] packetSent:vector(packetBytes) ETV
attr interpolationmode none
attr recordingmode vector(packetBytes)
attr source packetSent
attr title "packets sent, packetBytes"
vector 263 WSN_EnergyEfficient.sensorNode4.app[1] rcvdPkLifetime:vector ETV
attr interpolationmode none
attr recordingmode vector
attr source dataAge(packetReceived)
attr title "received packet lifetime"
attr unit s
vector 264 WSN_EnergyEfficient.sensorNode4.app[1] rcvdPkSeqNo:vector ETV
attr interpolationmode none
attr recordingmode vector
attr source appPkSeqNo(packetReceived)
attr title "received packet sequence number"
vector 265 WSN_EnergyEfficient.sensorNode5.energyStorage powerConsumption:vector ETV
attr interpolationmode sample-hold
attr recordingmode vector
attr source powerConsumptionChanged
attr title "Power consumption"
attr unit W
vector 266 WSN_EnergyEfficient.sensorNode5.energyStorage powerGeneration:vector ETV
attr interpolationmode sample-hold
attr recordingmode vector
attr source powerGenerationChanged
attr title "Power generation"
attr unit W
vector 267 WSN_EnergyEfficient.sensorNode5.energyStorage residualEnergyCapacity:vector ETV
attr interpolationmode linear
attr recordingmode vector
attr source residualEnergyCapacityChanged
attr title "Residual energy capacity"
attr unit J
vector 268 WSN_EnergyEfficient.sensorNode5.energyGenerator powerGeneration:vector ETV
attr interpolationmode sample-hold
attr recordingmode vector
attr source powerGenerationChanged
attr title "Power generation"
attr unit W
vector 269 WSN_EnergyEfficient.sensorNode5.lo[0].lo rcvdPkFromHl:vector(packetBytes) ETV
attr interpolationmode none
attr recordingmode vector(packetBytes)
attr source packetReceivedFromUpper
attr title "packets received from higher layer, packetBytes"
vector 270 WSN_EnergyEfficient.sensorNode5.lo[0].lo passedUpPk:vector(packetBytes) ETV
attr interpolationmode none
attr recordingmode vector(packetBytes)
attr source packetSentToUpper
attr title "packets passed to higher layer, packetBytes"
vector 271 WSN_EnergyEfficient.sensorNode5.lo[0] packetDropInterfaceDown:vector(packetBytes) ETV
attr interpolationmode none
attr recordingmode vector(packetBytes)
attr source packetDropReasonIsInterfaceDown(packetDropped)
attr title "packet drops: interface down, packetBytes"
vector 272 WSN_EnergyEfficient.sensorNode5.lo[0] packetDropNoCarrier:vector(packetBytes) ETV
attr interpolationmode none
attr recordingmode vector(packetBytes)
attr source packetDropReasonIsNoCarrier(packetDropped)
attr title "packet drops: no carrier, packetBytes"
vector 273 WSN_EnergyEfficient.sensorNode5.wlan[0].queue queueLength:vector ETV
attr autoWarmupFilter false
attr interpolationmode sample-hold
attr recordingmode vector
attr source "warmup(atomic(constant0(packetPushEnded) + count(packetPushStarted) - count(packetPulled) - count(packetRemoved) - count(packetDropped)))"
attr title "queue length"
attr unit pk
vector 274 WSN_EnergyEfficient.sensorNode5.wlan[0].queue queueBitLength:vector ETV
attr autoWarmupFilter false
attr interpolationmode sample-hold
attr recordingmode vector
attr source "warmup(atomic(constant0(packetPushEnded) + sum(packetLength(packetPushStarted)) - sum(packetLength(packetPulled)) - sum(packetLength(packetRemoved)) - sum(packetLength(packetDropped))))"
attr title "queue bit length"
attr unit b
vector 275 WSN_EnergyEfficient.sensorNode5.wlan[0].queue queueingTime:vector ETV
attr interpolationmode none
attr recordingmode vector
attr source queueingTime(packetPulled)
attr title "queueing times"
attr unit s
vector 276 WSN_EnergyEfficient.sensorNode5.wlan[0].queue incomingPacketLengths:vector ETV
attr interpolationmode none
attr recordingmode vector
attr source packetLength(packetPushStarted)
attr title "incoming packet lengths"
attr unit b
vector 277 WSN_EnergyEfficient.sensorNode5.wlan[0].queue incomingDataRate:vector ETV
attr interpolationmode linear
attr recordingmode vector
attr source throughput(packetPushStarted)
attr title "incoming datarate"
attr unit bps
vector 278 WSN_EnergyEfficient.sensorNode5.wlan[0].queue outgoingPacketLengths:vector ETV
attr interpolationmode none
attr recordingmode vector
attr source packetLength(packetPulled)
attr title "outgoing packet lengths"
attr unit b
vector 279 WSN_EnergyEfficient.sensorNode5.wlan[0].queue outgoingDataRate:vector ETV
attr interpolationmode linear
attr recordingmode vector
attr source throughput(packetPulled)
attr title "outgoing datarate"
attr unit bps
vector 280 WSN_EnergyEfficient.sensorNode5.wlan[0].queue droppedPacketLengthsQueueOverflow:vector ETV
attr interpolationmode none
attr recordingmode vector
attr source packetLength(packetDropReasonIsQueueOverflow(packetDropped))
attr title "dropped packet lengths: queue overflow"
attr unit b
vector 281 WSN_EnergyEfficient.sensorNode5.wlan[0].queue flowQueueingTime:vector ETV
attr interpolationmode none
attr recordingmode vector
attr source queueingTime(demuxFlow(packetPulled))
attr title "flow queueing times"
attr unit s
vector 282 WSN_EnergyEfficient.sensorNode5.wlan[0].queue flowIncomingDataRate:vector ETV
attr interpolationmode linear
attr recordingmode vector
attr source throughput(flowPacketLength(demuxFlow(packetPushStarted)))
attr title "flow specific incoming data rate"
attr unit bps
vector 283 WSN_EnergyEfficient.sensorNode5.wlan[0].queue flowOutgoingDataRate:vector ETV
attr interpolationmode linear
attr recordingmode vector
attr source throughput(flowPacketLength(demuxFlow(packetPulled)))
attr title "flow specific outgoing data rate"
attr unit bps
vector 284 WSN_EnergyEfficient.sensorNode5.wlan[0].mac packetDropNotAddressToUs:vector(packetBytes) ETV
attr interpolationmode none
attr recordingmode vector(packetBytes)
attr source packetDropReasonIsNotAddressedToUs(packetDropped)
attr title "packet drop: not addressed to us, packetBytes"
vector 285 WSN_EnergyEfficient.sensorNode5.wlan[0].mac packetDropIncorrectlyReceived:vector(packetBytes) ETV
attr interpolationmode none
attr recordingmode vector(packetBytes)
attr source packetDropReasonIsIncorrectlyReceived(packetDropped)
attr title "packet drop: incorrectly received, packetBytes"
vector 286 WSN_EnergyEfficient.sensorNode5.wlan[0].mac packetDropQueueOverflow:vector(packetBytes) ETV
attr interpolationmode none
attr recordingmode vector(packetBytes)
attr source packetDropReasonIsQueueOverflow(packetDropped)
attr title "packet drop: queue overflow, packetBytes"
vector 287 WSN_EnergyEfficient.sensorNode5.wlan[0].mac packetDropRetryLimitReached:vector(packetBytes) ETV
attr interpolationmode none
attr recordingmode vector(packetBytes)
attr source packetDropReasonIsRetryLimitReached(packetDropped)
attr title "packet drop: retry limit reached, packetBytes"
vector 288 WSN_EnergyEfficient.sensorNode5.wlan[0].mac packetDropBackoffLimitReached:vector(packetBytes) ETV
attr interpolationmode none
attr recordingmode vector(packetBytes)
attr source packetDropReasonIsCongestion(packetDropped)
attr title "packet drop: backoff limit reached, packetBytes"
vector 289 WSN_EnergyEfficient.sensorNode5.wlan[0].radio.energyConsumer powerConsumption:vector ETV
attr interpolationmode sample-hold
attr recordingmode vector
attr source powerConsumptionChanged
attr title "Power consumption"
attr unit W
vector 290 WSN_EnergyEfficient.sensorNode5.wlan[0].radio radioMode:vector ETV
attr interpolationmode sample-hold
attr recordingmode vector
attr source radioModeChanged
attr title "Radio mode"
vector 291 WSN_EnergyEfficient.sensorNode5.wlan[0].radio receptionState:vector ETV
attr interpolationmode sample-hold
attr recordingmode vector
attr source receptionStateChanged
attr title "Radio reception state"
vector 292 WSN_EnergyEfficient.sensorNode5.wlan[0].radio transmissionState:vector ETV
attr interpolationmode sample-hold
attr recordingmode vector
attr source transmissionStateChanged
attr title "Radio transmission state"
vector 293 WSN_EnergyEfficient.sensorNode5.wlan[0] packetDropInterfaceDown:vector(packetBytes) ETV
attr interpolationmode none
attr recordingmode vector(packetBytes)
attr source packetDropReasonIsInterfaceDown(packetDropped)
attr title "packet drops: interface down, packetBytes"
vector 294 WSN_EnergyEfficient.sensorNode5.wlan[0] packetDropNoCarrier:vector(packetBytes) ETV
attr interpolationmode none
attr recordingmode vector(packetBytes)
attr source packetDropReasonIsNoCarrier(packetDropped)
attr title "packet drops: no carrier, packetBytes"
vector 295 WSN_EnergyEfficient.sensorNode5.ipv4.ip packetDropAddressResolutionFailed:vector(packetBytes) ETV
attr interpolationmode none
attr recordingmode vector(packetBytes)
attr source packetDropReasonIsAddressResolutionFailed(packetDropped)
attr title "packet drop: address resolution failed, packetBytes"
vector 296 WSN_EnergyEfficient.sensorNode5.ipv4.ip packetDropHopLimitReached:vector(packetBytes) ETV
attr interpolationmode none
attr recordingmode vector(packetBytes)
attr source packetDropReasonIsHopLimitReached(packetDropped)
attr title "packet drop: hop limit reached, packetBytes"
vector 297 WSN_EnergyEfficient.sensorNode5.ipv4.ip packetDropForwardingDisabled:vector(packetBytes) ETV
attr interpolationmode none
attr recordingmode vector(packetBytes)
attr source packetDropReasonIsForwardingDisabled(packetDropped)
attr title "packet drop: forwarding disabled, packetBytes"
vector 298 WSN_EnergyEfficient.sensorNode5.ipv4.ip packetDropNoInterfaceFound:vector(packetBytes) ETV
attr interpolationmode none
attr recordingmode vector(packetBytes)
attr source packetDropReasonIsNoInterfaceFound(packetDropped)
attr title "packet drop: no interface found, packetBytes"
vector 299 WSN_EnergyEfficient.sensorNode5.ipv4.ip packetDropNoRouteFound:vector(packetBytes) ETV
attr interpolationmode none
attr recordingmode vector(packetBytes)
attr source packetDropReasonIsNoRouteFound(packetDropped)
attr title "packet drop: no route found, packetBytes"
vector 300 WSN_EnergyEfficient.sensorNode5.ipv4.ip packetDropUndefined:vector(packetBytes) ETV
attr interpolationmode none
attr recordingmode vector(packetBytes)
attr source packetDropReasonIsUndefined(packetDropped)
attr title "packet drop: undefined, packetBytes"
vector 301 WSN_EnergyEfficient.sensorNode5.ipv4.arp arpRequestSent:vector(packetBytes) ETV
attr recordingmode vector(packetBytes)
attr source arpRequestSent
attr title "ARP request sent, packetBytes"
vector 302 WSN_EnergyEfficient.sensorNode5.ipv4.arp arpReplySent:vector(packetBytes) ETV
attr recordingmode vector(packetBytes)
attr source arpReplySent
attr title "ARP replies sent, packetBytes"
vector 303 WSN_EnergyEfficient.sensorNode5.udp packetSent:vector(packetBytes) ETV
attr interpolationmode none
attr recordingmode vector(packetBytes)
attr source packetSent
attr title "packets sent, packetBytes"
vector 304 WSN_EnergyEfficient.sensorNode5.udp packetReceived:vector(packetBytes) ETV
attr interpolationmode none
attr recordingmode vector(packetBytes)
attr source packetReceived
attr title "packets received, packetBytes"
vector 305 WSN_EnergyEfficient.sensorNode5.udp passedUpPk:vector(count) ETV
attr interpolationmode none
attr recordingmode vector(count)
attr source packetSentToUpper
attr title "packets passed up, count"
vector 306 WSN_EnergyEfficient.sensorNode5.udp droppedPkWrongPort:vector(count) ETV
attr interpolationmode none
attr recordingmode vector(count)
attr source packetDropReasonIsNoPortFound(packetDropped)
attr title "packets dropped (wrong port), count"
vector 307 WSN_EnergyEfficient.sensorNode5.udp droppedPkBadChecksum:vector(count) ETV
attr interpolationmode none
attr recordingmode vector(count)
attr source packetDropReasonIsIncorrectlyReceived(packetDropped)
attr title "packets dropped (checksum error), count"
[...]
876	36531	87.1	0
876	36531	87.2	0
876	36531	87.3	0
876	36531	87.4	0
876	36531	87.5	0
876	36531	87.6	0
876	36531	87.7	0
876	36531	87.8	0
876	36531	87.9	0
876	36531	88	0
876	36531	88.1	0
876	36531	88.2	0
876	36531	88.3	0
876	36531	88.4	0
876	36531	88.5	0
876	36531	88.6	0
876	36531	88.7	0
876	36531	88.8	0
876	36531	88.9	0
876	36531	89	0
876	36531	89.1	0
876	36531	89.2	0
876	36531	89.3	0
876	36531	89.4	0
876	36531	89.5	0
876	36531	89.6	0
876	36531	89.7	0
876	36531	89.8	0
876	36531	89.9	0
876	36531	90	0
876	36531	90.1	0
876	36531	90.2	0
876	36531	90.3	0
876	36531	90.4	0
876	36531	90.5	0
876	36531	90.6	0
876	36531	90.7	0
876	36531	90.8	0
876	36531	90.9	0
876	36531	91	0
876	36531	91.1	0
876	36531	91.2	0
876	36531	91.3	0
876	36531	91.4	0
876	36531	91.5	0
876	36531	91.6	0
876	36531	91.7	0
876	36531	91.8	0
876	36531	91.9	0
876	36531	92	0
876	36531	92.1	0
876	36531	92.2	0
876	36531	92.3	0
876	36531	92.4	0
876	36531	92.5	0
876	36531	92.6	0
876	36531	92.7	0
876	36531	92.8	0
876	36531	92.9	0
876	36531	93	0
876	36531	93.1	0
876	36531	93.2	0
876	36531	93.3	0
876	36531	93.4	0
876	36531	93.5	0
876	36531	93.6	0
876	36531	93.7	0
876	36531	93.8	0
876	36531	93.9	0
876	36531	94	0
876	36531	94.1	0
876	36531	94.2	0
876	36531	94.3	0
876	36531	94.4	0
876	36531	94.5	0
876	36531	94.6	0
876	36531	94.7	0
876	36531	94.8	0
876	36531	94.9	0
876	36531	95	0
876	36531	95.1	0
876	36531	95.2	0
876	36531	95.3	0
876	36531	95.4	0
876	36531	95.5	0
876	36531	95.6	0
876	36531	95.7	0
876	36531	95.8	0
876	36531	95.9	0
876	36531	96	0
876	36531	96.1	0
876	36531	96.2	0
876	36531	96.3	0
876	36531	96.4	0
876	36531	96.5	0
876	36531	96.6	0
876	36531	96.7	0
876	36531	96.8	0
876	36531	96.9	0
876	36531	97	0
876	36531	97.1	0
876	36531	97.2	0
876	36531	97.3	0
876	36531	97.4	0
876	36531	97.5	0
876	36531	97.6	0
876	36531	97.7	0
876	36531	97.8	0
876	36531	97.9	0
876	36531	98	0
876	36531	98.1	0
876	36531	98.2	0
876	36531	98.3	0
876	36531	98.4	0
876	36531	98.5	0
876	36531	98.6	0
876	36531	98.7	0
876	36531	98.8	0
876	36531	98.9	0
876	36531	99	0
876	36531	99.1	0
876	36531	99.2	0
876	36531	99.3	0
876	36531	99.4	0
876	36531	99.5	0
876	36531	99.6	0
876	36531	99.7	0
876	36531	99.8	0
876	36531	99.9	0
876	36531	100	0
876	36531	100.1	0
876	36531	100.2	0
876	36531	100.3	0
876	36531	100.4	0
876	36531	100.5	0
876	36531	100.6	0
876	36531	100.7	0
876	36531	100.8	0
876	36531	100.9	0
876	36531	101	0
876	36531	101.1	0
876	36531	101.2	0
876	36531	101.3	0
876	36531	101.4	0
876	36531	101.5	0
876	36531	101.6	0
876	36531	101.7	0
876	36531	101.8	0
876	36531	101.9	0
876	36531	102	0
876	36531	102.1	0
876	36531	102.2	0
876	36531	102.3	0
876	36531	102.4	0
876	36531	102.5	0
876	36531	102.6	0
876	36531	102.7	0
876	36531	102.8	0
876	36531	102.9	0
876	36531	103	0
876	36531	103.1	0
876	36531	103.2	0
876	36531	103.3	0
876	36531	103.4	0
876	36531	103.5	0
876	36531	103.6	0
876	36531	103.7	0
876	36531	103.8	0
876	36531	103.9	0
876	36531	104	0
876	36531	104.1	0
876	36531	104.2	0
876	36531	104.3	0
876	36531	104.4	0
876	36531	104.5	0
876	36531	104.6	0
876	36531	104.7	0
876	36531	104.8	0
876	36531	104.9	0
876	36531	105	0
876	36531	105.1	0
876	36531	105.2	0
876	36531	105.3	0
876	36531	105.4	0
876	36531	105.5	0
876	36531	105.6	0
876	36531	105.7	0
876	36531	105.8	0
876	36531	105.9	0
876	36531	106	0
876	36531	106.1	0
876	36531	106.2	0
876	36531	106.3	0
876	36531	106.4	0
876	36531	106.5	0
876	36531	106.6	0
876	36531	106.7	0
876	36531	106.8	0
876	36531	106.9	0
876	36531	107	0
876	36531	107.1	0
876	36531	107.2	0
876	36531	107.3	0
876	36531	107.4	0
876	36531	107.5	0
876	36531	107.6	0
876	36531	107.7	0
876	36531	107.8	0
876	36531	107.9	0
876	36531	108	0
876	36531	108.1	0
876	36531	108.2	0
876	36531	108.3	0
876	36531	108.4	0
876	36531	108.5	0
876	36531	108.6	0
876	36531	108.7	0
876	36531	108.8	0
876	36531	108.9	0
876	36531	109	0
876	36531	109.1	0
876	36531	109.2	0
876	36531	109.3	0
876	36531	109.4	0
876	36531	109.5	0
876	36531	109.6	0
876	36531	109.7	0
876	36531	109.8	0
876	36531	109.9	0
876	36531	110	0
876	36531	110.1	0
876	36531	110.2	0
876	36531	110.3	0
876	36531	110.4	0
876	36531	110.5	0
876	36531	110.6	0
876	36531	110.7	0
876	36531	110.8	0
876	36531	110.9	0
876	36531	111	0
876	36531	111.1	0
876	36531	111.2	0
876	36531	111.3	0
876	36531	111.4	0
876	36531	111.5	0
876	36531	111.6	0
876	36531	111.7	0
876	36531	111.8	0
876	36531	111.9	0
876	36531	112	0
876	36531	112.1	0
876	36531	112.2	0
876	36531	112.3	0
876	36531	112.4	0
876	36531	112.5	0
876	36531	112.6	0
876	36531	112.7	0
876	36531	112.8	0
876	36531	112.9	0
876	36531	113	0
876	36531	113.1	0
876	36531	113.2	0
876	36531	113.3	0
876	36531	113.4	0
876	36531	113.5	0
876	36531	113.6	0
876	36531	113.7	0
876	36531	113.8	0
876	36531	113.9	0
876	36531	114	0
876	36531	114.1	0
876	36531	114.2	0
876	36531	114.3	0
876	36531	114.4	0
876	36531	114.5	0
876	36531	114.6	0
876	36531	114.7	0
876	36531	114.8	0
876	36531	114.9	0
876	36531	115	0
876	36531	115.1	0
876	36531	115.2	0
876	36531	115.3	0
876	36531	115.4	0
876	36531	115.5	0
876	36531	115.6	0
876	36531	115.7	0
876	36531	115.8	0
876	36531	115.9	0
876	36531	116	0
876	36531	116.1	0
876	36531	116.2	0
876	36531	116.3	0
876	36531	116.4	0
876	36531	116.5	0
876	36531	116.6	0
876	36531	116.7	0
876	36531	116.8	0
876	36531	116.9	0
876	36531	117	0
876	36531	117.1	0
876	36531	117.2	0
876	36531	117.3	0
876	36531	117.4	0
876	36531	117.5	0
876	36531	117.6	0
876	36531	117.7	0
876	36531	117.8	0
876	36531	117.9	0
876	36531	118	0
876	36531	118.1	0
876	36531	118.2	0
876	36531	118.3	0
876	36531	118.4	0
876	36531	118.5	0
876	36531	118.6	0
876	36531	118.7	0
876	36531	118.8	0
876	36531	118.9	0
876	36531	119	0
876	36531	119.1	0
876	36531	119.2	0
876	36531	119.3	0
876	36531	119.4	0
876	36531	119.5	0
876	36531	119.6	0
876	36531	119.7	0
876	36531	119.8	0
876	36531	119.9	0
876	36531	120	0
876	36531	120.1	0
876	36531	120.2	0
876	36531	120.3	0
876	36531	120.4	0
876	36531	120.5	0
876	36531	120.6	0
876	36531	120.7	0
876	36531	120.8	0
876	36531	120.9	0
876	36531	121	0
876	36531	121.1	0
876	36531	121.2	0
876	36531	121.3	0
876	36531	121.4	0
876	36531	121.5	0
876	36531	121.6	0
876	36531	121.7	0
876	36531	121.8	0
876	36531	121.9	0
876	36531	122	0
876	36531	122.1	0
876	36531	122.2	0
876	36531	122.3	0
876	36531	122.4	0
876	36531	122.5	0
876	36531	122.6	0
876	36531	122.7	0
876	36531	122.8	0
876	36531	122.9	0
876	36531	123	0
876	36531	123.1	0
876	36531	123.2	0
876	36531	123.3	0
876	36531	123.4	0
876	36531	123.5	0
876	36531	123.6	0
876	36531	123.7	0
876	36531	123.8	0
876	36531	123.9	0
876	36531	124	0
876	36531	124.1	0
876	36531	124.2	0
876	36531	124.3	0
876	36531	124.4	0
876	36531	124.5	0
876	36531	124.6	0
876	36531	124.7	0
876	36531	124.8	0
876	36531	124.9	0
876	36531	125	0
876	36531	125.1	0
876	36531	125.2	0
876	36531	125.3	0
876	36531	125.4	0
876	36531	125.5	0
876	36531	125.6	0
876	36531	125.7	0
876	36531	125.8	0
876	36531	125.9	0
876	36531	126	0
876	36531	126.1	0
876	36531	126.2	0
876	36531	126.3	0
876	36531	126.4	0
876	36531	126.5	0
876	36531	126.6	0
876	36531	126.7	0
876	36531	126.8	0
876	36531	126.9	0
876	36531	127	0
876	36531	127.1	0
876	36531	127.2	0
876	36531	127.3	0
876	36531	127.4	0
876	36531	127.5	0
876	36531	127.6	0
876	36531	127.7	0
876	36531	127.8	0
876	36531	127.9	0
876	36531	128	0
876	36531	128.1	0
876	36531	128.2	0
876	36531	128.3	0
876	36531	128.4	0
876	36531	128.5	0
876	36531	128.6	0
876	36531	128.7	0
876	36531	128.8	0
876	36531	128.9	0
876	36531	129	0
876	36531	129.1	0
876	36531	129.2	0
876	36531	129.3	0
876	36531	129.4	0
876	36531	129.5	0
876	36531	129.6	0
876	36531	129.7	0
876	36531	129.8	0
876	36531	129.9	0
876	36531	130	0
876	36531	130.1	0
876	36531	130.2	0
876	36531	130.3	0
876	36531	130.4	0
876	36531	130.5	0
876	36531	130.6	0
876	36531	130.7	0
876	36531	130.8	0
876	36531	130.9	0
876	36531	131	0
876	36531	131.1	0
876	36531	131.2	0
876	36531	131.3	0
876	36531	131.4	0
876	36531	131.5	0
876	36531	131.6	0
876	36531	131.7	0
876	36531	131.8	0
876	36531	131.9	0
876	36531	132	0
876	36531	132.1	0
876	36531	132.2	0
876	36531	132.3	0
876	36531	132.4	0
876	36531	132.5	0
876	36531	132.6	0
876	36531	132.7	0
876	36531	132.8	0
876	36531	132.9	0
876	36531	133	0
876	36531	133.1	0
876	36531	133.2	0
876	36531	133.3	0
876	36531	133.4	0
876	36531	133.5	0
876	36531	133.6	0
876	36531	133.7	0
876	36531	133.8	0
876	36531	133.9	0
876	36531	134	0
876	36531	134.1	0
876	36531	134.2	0
876	36531	134.3	0
876	36531	134.4	0
876	36531	134.5	0
876	36531	134.6	0
876	36531	134.7	0
876	36531	134.8	0
876	36531	134.9	0
876	36531	135	0
876	36531	135.1	0
876	36531	135.2	0
876	36531	135.3	0
876	36531	135.4	0
876	36531	135.5	0
876	36531	135.6	0
876	36531	135.7	0
876	36531	135.8	0
876	36531	135.9	0
876	36531	136	0
876	36531	136.1	0
876	36531	136.2	0
876	36531	136.3	0
876	36531	136.4	0
876	36531	136.5	0
876	36531	136.6	0
876	36531	136.7	0
876	36531	136.8	0
876	36531	136.9	0
876	36531	137	0
876	36531	137.1	0
876	36531	137.2	0
876	36531	137.3	0
876	36531	137.4	0
876	36531	137.5	0
876	36531	137.6	0
876	36531	137.7	0
876	36531	137.8	0
876	36531	137.9	0
876	36531	138	0
876	36531	138.1	0
876	36531	138.2	0
876	36531	138.3	0
876	36531	138.4	0
876	36531	138.5	0
876	36531	138.6	0
876	36531	138.7	0
876	36531	138.8	0
876	36531	138.9	0
876	36531	139	0
876	36531	139.1	0
876	36531	139.2	0
876	36531	139.3	0
876	36531	139.4	0
876	36531	139.5	0
876	36531	139.6	0
876	36531	139.7	0
876	36531	139.8	0
876	36531	139.9	0
876	36531	140	0
876	36531	140.1	0
876	36531	140.2	0
876	36531	140.3	0
876	36531	140.4	0
876	36531	140.5	0
876	36531	140.6	0
876	36531	140.7	0
876	36531	140.8	0
876	36531	140.9	0
876	36531	141	0
876	36531	141.1	0
876	36531	141.2	0
876	36531	141.3	0
876	36531	141.4	0
876	36531	141.5	0
876	36531	141.6	0
876	36531	141.7	0
876	36531	141.8	0
876	36531	141.9	0
876	36531	142	0
876	36531	142.1	0
876	36531	142.2	0
876	36531	142.3	0
876	36531	142.4	0
876	36531	142.5	0
876	36531	142.6	0
876	36531	142.7	0
876	36531	142.8	0
876	36531	142.9	0
876	36531	143	0
876	36531	143.1	0
876	36531	143.2	0
876	36531	143.3	0
876	36531	143.4	0
876	36531	143.5	0
876	36531	143.6	0
876	36531	143.7	0
876	36531	143.8	0
876	36531	143.9	0
876	36531	144	0
876	36531	144.1	0
876	36531	144.2	0
876	36531	144.3	0
876	36531	144.4	0
876	36531	144.5	0
876	36531	144.6	0
876	36531	144.7	0
876	36531	144.8	0
876	36531	144.9	0
876	36531	145	0
876	36531	145.1	0
876	36531	145.2	0
876	36531	145.3	0
876	36531	145.4	0
876	36531	145.5	0
876	36531	145.6	0
876	36531	145.7	0
876	36531	145.8	0
876	36531	145.9	0
876	36531	146	0
876	36531	146.1	0
876	36531	146.2	0
876	36531	146.3	0
876	36531	146.4	0
876	36531	146.5	0
876	36531	146.6	0
876	36531	146.7	0
876	36531	146.8	0
876	36531	146.9	0
876	36531	147	0
876	36531	147.1	0
876	36531	147.2	0
876	36531	147.3	0
876	36531	147.4	0
876	36531	147.5	0
876	36531	147.6	0
876	36531	147.7	0
876	36531	147.8	0
876	36531	147.9	0
876	36531	148	0
876	36531	148.1	0
876	36531	148.2	0
876	36531	148.3	0
876	36531	148.4	0
876	36531	148.5	0
876	36531	148.6	0
876	36531	148.7	0
876	36531	148.8	0
876	36531	148.9	0
876	36531	149	0
876	36531	149.1	0
876	36531	149.2	0
876	36531	149.3	0
876	36531	149.4	0
876	36531	149.5	0
876	36531	149.6	0
876	36531	149.7	0
876	36531	149.8	0
876	36531	149.9	0
876	36531	150	0
876	36531	150.1	0
876	36531	150.2	0
876	36531	150.3	0
876	36531	150.4	0
876	36531	150.5	0
876	36531	150.6	0
876	36531	150.7	0
876	36531	150.8	0
876	36531	150.9	0
876	36531	151	0
876	36531	151.1	0
876	36531	151.2	0
876	36531	151.3	0
876	36531	151.4	0
876	36531	151.5	0
876	36531	151.6	0
876	36531	151.7	0
876	36531	151.8	0
876	36531	151.9	0
876	36531	152	0
876	36531	152.1	0
876	36531	152.2	0
876	36531	152.3	0
876	36531	152.4	0
876	36531	152.5	0
876	36531	152.6	0
876	36531	152.7	0
876	36531	152.8	0
876	36531	152.9	0
876	36531	153	0
876	36531	153.1	0
876	36531	153.2	0
876	36531	153.3	0
876	36531	153.4	0
876	36531	153.5	0
876	36531	153.6	0
876	36531	153.7	0
876	36531	153.8	0
876	36531	153.9	0
876	36531	154	0
876	36531	154.1	0
876	36531	154.2	0
876	36531	154.3	0
876	36531	154.4	0
876	36531	154.5	0
876	36531	154.6	0
876	36531	154.7	0
876	36531	154.8	0
876	36531	154.9	0
876	36531	155	0
876	36531	155.1	0
876	36531	155.2	0
876	36531	155.3	0
876	36531	155.4	0
876	36531	155.5	0
876	36531	155.6	0
876	36531	155.7	0
876	36531	155.8	0
876	36531	155.9	0
876	36531	156	0
876	36531	156.1	0
876	36531	156.2	0
876	36531	156.3	0
876	36531	156.4	0
876	36531	156.5	0
876	36531	156.6	0
876	36531	156.7	0
876	36531	156.8	0
876	36531	156.9	0
876	36531	157	0
876	36531	157.1	0
876	36531	157.2	0
876	36531	157.3	0
876	36531	157.4	0
876	36531	157.5	0
876	36531	157.6	0
876	36531	157.7	0
876	36531	157.8	0
876	36531	157.9	0
876	36531	158	0
876	36531	158.1	0
876	36531	158.2	0
876	36531	158.3	0
876	36531	158.4	0
876	36531	158.5	0
876	36531	158.6	0
876	36531	158.7	0
876	36531	158.8	0
876	36531	158.9	0
876	36531	159	0
876	36531	159.1	0
876	36531	159.2	0
876	36531	159.3	0
876	36531	159.4	0
876	36531	159.5	0
876	36531	159.6	0
876	36531	159.7	0
876	36531	159.8	0
876	36531	159.9	0
876	36531	160	0
876	36531	160.1	0
876	36531	160.2	0
876	36531	160.3	0
876	36531	160.4	0
876	36531	160.5	0
876	36531	160.6	0
876	36531	160.7	0
876	36531	160.8	0
876	36531	160.9	0
876	36531	161	0
876	36531	161.1	0
876	36531	161.2	0
876	36531	161.3	0
876	36531	161.4	0
876	36531	161.5	0
876	36531	161.6	0
876	36531	161.7	0
876	36531	161.8	0
876	36531	161.9	0
876	36531	162	0
876	36531	162.1	0
876	36531	162.2	0
876	36531	162.3	0
876	36531	162.4	0
876	36531	162.5	0
876	36531	162.6	0
876	36531	162.7	0
876	36531	162.8	0
876	36531	162.9	0
876	36531	163	0
876	36531	163.1	0
876	36531	163.2	0
876	36531	163.3	0
876	36531	163.4	0
876	36531	163.5	0
876	36531	163.6	0
876	36531	163.7	0
876	36531	163.8	0
876	36531	163.9	0
876	36531	164	0
876	36531	164.1	0
876	36531	164.2	0
876	36531	164.3	0
876	36531	164.4	0
876	36531	164.5	0
876	36531	164.6	0
876	36531	164.7	0
876	36531	164.8	0
876	36531	164.9	0
876	36531	165	0
876	36531	165.1	0
876	36531	165.2	0
876	36531	165.3	0
876	36531	165.4	0
876	36531	165.5	0
876	36531	165.6	0
876	36531	165.7	0
876	36531	165.8	0
876	36531	165.9	0
876	36531	166	0
876	36531	166.1	0
876	36531	166.2	0
876	36531	166.3	0
876	36531	166.4	0
876	36531	166.5	0
876	36531	166.6	0
876	36531	166.7	0
876	36531	166.8	0
876	36531	166.9	0
876	36531	167	0
876	36531	167.1	0
876	36531	167.2	0
876	36531	167.3	0
876	36531	167.4	0
876	36531	167.5	0
876	36531	167.6	0
876	36531	167.7	0
876	36531	167.8	0
876	36531	167.9	0
876	36531	168	0
876	36531	168.1	0
876	36531	168.2	0
876	36531	168.3	0
876	36531	168.4	0
876	36531	168.5	0
876	36531	168.6	0
876	36531	168.7	0
876	36531	168.8	0
876	36531	168.9	0
876	36531	169	0
876	36531	169.1	0
876	36531	169.2	0
876	36531	169.3	0
876	36531	169.4	0
876	36531	169.5	0
876	36531	169.6	0
876	36531	169.7	0
876	36531	169.8	0
876	36531	169.9	0
876	36531	170	0
876	36531	170.1	0
876	36531	170.2	0
876	36531	170.3	0
876	36531	170.4	0
876	36531	170.5	0
876	36531	170.6	0
876	36531	170.7	0
876	36531	170.8	0
876	36531	170.9	0
876	36531	171	0
876	36531	171.1	0
876	36531	171.2	0
876	36531	171.3	0
876	36531	171.4	0
876	36531	171.5	0
876	36531	171.6	0
876	36531	171.7	0
876	36531	171.8	0
876	36531	171.9	0
876	36531	172	0
876	36531	172.1	0
876	36531	172.2	0
876	36531	172.3	0
876	36531	172.4	0
876	36531	172.5	0
876	36531	172.6	0
876	36531	172.7	0
876	36531	172.8	0
876	36531	172.9	0
876	36531	173	0
876	36531	173.1	0
876	36531	173.2	0
876	36531	173.3	0
876	36531	173.4	0
876	36531	173.5	0
876	36531	173.6	0
876	36531	173.7	0
876	36531	173.8	0
876	36531	173.9	0
876	36531	174	0
876	36531	174.1	0
876	36531	174.2	0
876	36531	174.3	0
876	36531	174.4	0
876	36531	174.5	0
876	36531	174.6	0
876	36531	174.7	0
876	36531	174.8	0
876	36531	174.9	0
876	36531	175	0
876	36531	175.1	0
876	36531	175.2	0
876	36531	175.3	0
876	36531	175.4	0
876	36531	175.5	0
876	36531	175.6	0
876	36531	175.7	0
876	36531	175.8	0
876	36531	175.9	0
876	36531	176	0
876	36531	176.1	0
876	36531	176.2	0
876	36531	176.3	0
876	36531	176.4	0
876	36531	176.5	0
876	36531	176.6	0
876	36531	176.7	0
876	36531	176.8	0
876	36531	176.9	0
876	36531	177	0
876	36531	177.1	0
876	36531	177.2	0
876	36531	177.3	0
876	36531	177.4	0
876	36531	177.5	0
876	36531	177.6	0
876	36531	177.7	0
876	36531	177.8	0
876	36531	177.9	0
876	36531	178	0
876	36531	178.1	0
876	36531	178.2	0
876	36531	178.3	0
876	36531	178.4	0
876	36531	178.5	0
876	36531	178.6	0
876	36531	178.7	0
876	36531	178.8	0
876	36531	178.9	0
876	36531	179	0
876	36531	179.1	0
876	36531	179.2	0
876	36531	179.3	0
876	36531	179.4	0
876	36531	179.5	0
876	36531	179.6	0
876	36531	179.7	0
876	36531	179.8	0
876	36531	179.9	0
876	36531	180	0
876	36531	180.1	0
876	36531	180.2	0
876	36531	180.3	0
876	36531	180.4	0
876	36531	180.5	0
876	36531	180.6	0
876	36531	180.7	0
876	36531	180.8	0
876	36531	180.9	0
876	36531	181	0
876	36531	181.1	0
876	36531	181.2	0
876	36531	181.3	0
876	36531	181.4	0
876	36531	181.5	0
876	36531	181.6	0
876	36531	181.7	0
876	36531	181.8	0
876	36531	181.9	0
876	36531	182	0
876	36531	182.1	0
876	36531	182.2	0
876	36531	182.3	0
876	36531	182.4	0
876	36531	182.5	0
876	36531	182.6	0
876	36531	182.7	0
876	36531	182.8	0
876	36531	182.9	0
876	36531	183	0
876	36531	183.1	0
876	36531	183.2	0
876	36531	183.3	0
876	36531	183.4	0
876	36531	183.5	0
876	36531	183.6	0
876	36531	183.7	0
876	36531	183.8	0
876	36531	183.9	0
876	36531	184	0
876	36531	184.1	0
876	36531	184.2	0
876	36531	184.3	0
876	36531	184.4	0
876	36531	184.5	0
876	36531	184.6	0
876	36531	184.7	0
876	36531	184.8	0
876	36531	184.9	0
876	36531	185	0
876	36531	185.1	0
876	36531	185.2	0
876	36531	185.3	0
876	36531	185.4	0
876	36531	185.5	0
876	36531	185.6	0
876	36531	185.7	0
876	36531	185.8	0
876	36531	185.9	0
876	36531	186	0
876	36531	186.1	0
876	36531	186.2	0
876	36531	186.3	0
876	36531	186.4	0
876	36531	186.5	0
876	36531	186.6	0
876	36531	186.7	0
876	36531	186.8	0
876	36531	186.9	0
876	36531	187	0
876	36531	187.1	0
876	36531	187.2	0
876	36531	187.3	0
876	36531	187.4	0
876	36531	187.5	0
876	36531	187.6	0
876	36531	187.7	0
876	36531	187.8	0
876	36531	187.9	0
876	36531	188	0
876	36531	188.1	0
876	36531	188.2	0
876	36531	188.3	0
876	36531	188.4	0
876	36531	188.5	0
876	36531	188.6	0
876	36531	188.7	0
876	36531	188.8	0
876	36531	188.9	0
876	36531	189	0
876	36531	189.1	0
876	36531	189.2	0
876	36531	189.3	0
876	36531	189.4	0
876	36531	189.5	0
876	36531	189.6	0
876	36531	189.7	0
876	36531	189.8	0
876	36531	189.9	0
876	36531	190	0
876	36531	190.1	0
876	36531	190.2	0
876	36531	190.3	0
876	36531	190.4	0
876	36531	190.5	0
876	36531	190.6	0
876	36531	190.7	0
876	36531	190.8	0
876	36531	190.9	0
876	36531	191	0
876	36531	191.1	0
876	36531	191.2	0
876	36531	191.3	0
876	36531	191.4	0
876	36531	191.5	0
876	36531	191.6	0
876	36531	191.7	0
876	36531	191.8	0
876	36531	191.9	0
876	36531	192	0
876	36531	192.1	0
876	36531	192.2	0
876	36531	192.3	0
876	36531	192.4	0
876	36531	192.5	0
876	36531	192.6	0
876	36531	192.7	0
876	36531	192.8	0
876	36531	192.9	0
876	36531	193	0
876	36531	193.1	0
876	36531	193.2	0
876	36531	193.3	0
876	36531	193.4	0
876	36531	193.5	0
876	36531	193.6	0
876	36531	193.7	0
876	36531	193.8	0
876	36531	193.9	0
876	36531	194	0
876	36531	194.1	0
876	36531	194.2	0
876	36531	194.3	0
876	36531	194.4	0
876	36531	194.5	0
876	36531	194.6	0
876	36531	194.7	0
876	36531	194.8	0
876	36531	194.9	0
876	36531	195	0
876	36531	195.1	0
876	36531	195.2	0
876	36531	195.3	0
876	36531	195.4	0
876	36531	195.5	0
876	36531	195.6	0
876	36531	195.7	0
876	36531	195.8	0
876	36531	195.9	0
876	36531	196	0
876	36531	196.1	0
876	36531	196.2	0
876	36531	196.3	0
876	36531	196.4	0
876	36531	196.5	0
876	36531	196.6	0
876	36531	196.7	0
876	36531	196.8	0
876	36531	196.9	0
876	36531	197	0
876	36531	197.1	0
876	36531	197.2	0
876	36531	197.3	0
876	36531	197.4	0
876	36531	197.5	0
876	36531	197.6	0
876	36531	197.7	0
876	36531	197.8	0
876	36531	197.9	0
876	36531	198	0
876	36531	198.1	0
876	36531	198.2	0
876	36531	198.3	0
876	36531	198.4	0
876	36531	198.5	0
876	36531	198.6	0
876	36531	198.7	0
876	36531	198.8	0
876	36531	198.9	0
876	36531	199	0
876	36531	199.1	0
876	36531	199.2	0
876	36531	199.3	0
876	36531	199.4	0
876	36531	199.5	0
876	36531	199.6	0
876	36531	199.7	0
876	36531	199.8	0
876	36531	199.9	0
876	36531	200	0

