file 2349206 1751815621                                         
version 3
run General-0-20250706-21:26:53-4116
attr configname General
attr datetime 20250706-21:26:53
attr datetimef 20250706-212653
attr experiment General
attr inifile omnetpp.ini
attr iterationvars ""
attr iterationvarsd ""
attr iterationvarsf ""
attr measurement ""
attr network WSN_EnergyEfficient
attr processid 4116
attr repetition 0
attr replication #0
attr resultdir results
attr runnumber 0
attr seedset 0
config image-path ../../inet4.5/images
config network WSN_EnergyEfficient
config sim-time-limit 200s
config *.visualizer.energyStorageVisualizer.displayEnergyStorages true
config *.visualizer.dataLinkVisualizer.displayLinks true
config *.visualizer.dataLinkVisualizer.packetFilter "\"*\""
config *.visualizer.networkRouteVisualizer.displayRoutes true
config *.visualizer.networkRouteVisualizer.packetFilter "\"*\""
config *.visualizer.networkRouteVisualizer.lineColor "\"blue\""
config *.visualizer.physicalLinkVisualizer.displayLinks true
config *.visualizer.mobilityVisualizer.displayMobility true
config *.visualizer.mobilityVisualizer.displayMovementTrails true
config *.sensorNode*.hasStatus true
config *.sensorNode*.energyStorage.typename SimpleEpEnergyStorage
config *.sensorNode*.wlan[0].radio.energyConsumer.typename StateBasedEpEnergyConsumer
config *.sensorNode*.energyManagement.typename SimpleEpEnergyManagement
config *.sensorNode*.energyStorage.nominalCapacity 0.15J
config *.sensorNode*.energyStorage.initialCapacity 0.15J
config *.sensorNode*.energyStorage.printCapacityStep 0.0015J
config *.sensorNode*.energyManagement.nodeShutdownCapacity 0.06J
config *.sensorNode*.energyManagement.nodeStartCapacity 0.09J
config *.sensorNode*.energyGenerator.typename AlternatingEpEnergyGenerator
config *.sensorNode*.energyGenerator.powerGeneration 3mW
config *.sensorNode*.energyGenerator.sleepInterval exponential(15s)
config *.sensorNode*.energyGenerator.generationInterval exponential(20s)
config *.sensorNode*.mobility.typename StationaryMobility
config *.sensorNode*.mobility.initFromDisplayString true
config *.accessPoint*.mobility.typename StationaryMobility
config *.accessPoint*.mobility.initFromDisplayString true
config **.wlan[*].typename Ieee802154NarrowbandInterface
config **.wlan[*].radio.transmitter.power 2.24mW
config **.wlan[*].radio.receiver.sensitivity -85dBm
config **.wlan[*].radio.receiver.energyDetection -85dBm
config **.wlan[*].radio.receiver.snirThreshold 4dB
config **.wlan[*].radio.centerFrequency 2.4GHz
config **.wlan[*].radio.bandwidth 2MHz
config **.wlan[*].mac.useMACAcks true
config **.wlan[*].mac.rxSetupTime 0.00192s
config **.radioMedium.backgroundNoise.power -110dBm
config *.*.routing.typename Aodv
config *.configurator.addStaticRoutes false
config *.configurator.addDefaultRoutes false
config *.configurator.addSubnetRoutes false
config *.configurator.optimizeRoutes false
config *.sensorNode*.numApps 2
config *.sensorNode*.app[0].typename PingApp
config *.sensorNode*.app[0].destAddr "\"accessPoint0\""
config *.sensorNode*.app[0].startTime "uniform(1s, 10s)"
config *.sensorNode*.app[0].stopTime 190s
config *.sensorNode*.app[0].sendInterval exponential(20s)
config *.sensorNode*.app[0].packetSize 64B
config *.sensorNode*.app[0].printPing true
config *.sensorNode*.app[1].typename UdpBasicApp
config *.sensorNode*.app[1].destAddresses "\"accessPoint0\""
config *.sensorNode*.app[1].destPort 5000
config *.sensorNode*.app[1].messageLength 32B
config *.sensorNode*.app[1].sendInterval exponential(25s)
config *.sensorNode*.app[1].startTime "uniform(5s, 15s)"
config *.sensorNode*.app[1].stopTime 190s
config *.accessPoint*.numApps 1
config *.accessPoint*.hasStatus true
config *.accessPoint*.app[0].typename UdpSink
config *.accessPoint*.app[0].localPort 5000
config *.sensorNode*.wlan[0].mac.typename Ieee802154Mac
config *.sensorNode*.wlan[0].mac.macMaxFrameRetries 3
config *.sensorNode*.wlan[0].mac.macMaxBE 5
config *.sensorNode*.wlan[0].mac.macMinBE 3
config *.accessPoint*.wlan[0].mac.typename Ieee802154Mac
config *.accessPoint*.wlan[0].mac.macMaxFrameRetries 3
config *.sensorNode*.wlan[0].mac.recordStatistics true
config *.accessPoint*.wlan[0].mac.recordStatistics true
config *.radioMedium.pathLoss.typename FreeSpacePathLoss
config *.sensorNode*.wlan[0].radio.displayCommunicationRange false
config *.accessPoint*.wlan[0].radio.displayCommunicationRange false
config *.radioMedium.carrierFrequency 2.4GHz
config *.radioMedium.bandwidth 250kbps

vector 0 WSN_EnergyEfficient.sensorNode0.energyStorage powerConsumption:vector ETV
attr interpolationmode sample-hold
attr recordingmode vector
attr source powerConsumptionChanged
attr title "Power consumption"
attr unit W
vector 1 WSN_EnergyEfficient.sensorNode0.energyStorage powerGeneration:vector ETV
attr interpolationmode sample-hold
attr recordingmode vector
attr source powerGenerationChanged
attr title "Power generation"
attr unit W
vector 2 WSN_EnergyEfficient.sensorNode0.energyStorage residualEnergyCapacity:vector ETV
attr interpolationmode linear
attr recordingmode vector
attr source residualEnergyCapacityChanged
attr title "Residual energy capacity"
attr unit J
vector 3 WSN_EnergyEfficient.sensorNode0.energyGenerator powerGeneration:vector ETV
attr interpolationmode sample-hold
attr recordingmode vector
attr source powerGenerationChanged
attr title "Power generation"
attr unit W
vector 4 WSN_EnergyEfficient.sensorNode0.lo[0].lo rcvdPkFromHl:vector(packetBytes) ETV
attr interpolationmode none
attr recordingmode vector(packetBytes)
attr source packetReceivedFromUpper
attr title "packets received from higher layer, packetBytes"
vector 5 WSN_EnergyEfficient.sensorNode0.lo[0].lo passedUpPk:vector(packetBytes) ETV
attr interpolationmode none
attr recordingmode vector(packetBytes)
attr source packetSentToUpper
attr title "packets passed to higher layer, packetBytes"
vector 6 WSN_EnergyEfficient.sensorNode0.lo[0] packetDropInterfaceDown:vector(packetBytes) ETV
attr interpolationmode none
attr recordingmode vector(packetBytes)
attr source packetDropReasonIsInterfaceDown(packetDropped)
attr title "packet drops: interface down, packetBytes"
vector 7 WSN_EnergyEfficient.sensorNode0.lo[0] packetDropNoCarrier:vector(packetBytes) ETV
attr interpolationmode none
attr recordingmode vector(packetBytes)
attr source packetDropReasonIsNoCarrier(packetDropped)
attr title "packet drops: no carrier, packetBytes"
vector 8 WSN_EnergyEfficient.sensorNode0.wlan[0].queue queueLength:vector ETV
attr autoWarmupFilter false
attr interpolationmode sample-hold
attr recordingmode vector
attr source "warmup(atomic(constant0(packetPushEnded) + count(packetPushStarted) - count(packetPulled) - count(packetRemoved) - count(packetDropped)))"
attr title "queue length"
attr unit pk
vector 9 WSN_EnergyEfficient.sensorNode0.wlan[0].queue queueBitLength:vector ETV
attr autoWarmupFilter false
attr interpolationmode sample-hold
attr recordingmode vector
attr source "warmup(atomic(constant0(packetPushEnded) + sum(packetLength(packetPushStarted)) - sum(packetLength(packetPulled)) - sum(packetLength(packetRemoved)) - sum(packetLength(packetDropped))))"
attr title "queue bit length"
attr unit b
vector 10 WSN_EnergyEfficient.sensorNode0.wlan[0].queue queueingTime:vector ETV
attr interpolationmode none
attr recordingmode vector
attr source queueingTime(packetPulled)
attr title "queueing times"
attr unit s
vector 11 WSN_EnergyEfficient.sensorNode0.wlan[0].queue incomingPacketLengths:vector ETV
attr interpolationmode none
attr recordingmode vector
attr source packetLength(packetPushStarted)
attr title "incoming packet lengths"
attr unit b
vector 12 WSN_EnergyEfficient.sensorNode0.wlan[0].queue incomingDataRate:vector ETV
attr interpolationmode linear
attr recordingmode vector
attr source throughput(packetPushStarted)
attr title "incoming datarate"
attr unit bps
vector 13 WSN_EnergyEfficient.sensorNode0.wlan[0].queue outgoingPacketLengths:vector ETV
attr interpolationmode none
attr recordingmode vector
attr source packetLength(packetPulled)
attr title "outgoing packet lengths"
attr unit b
vector 14 WSN_EnergyEfficient.sensorNode0.wlan[0].queue outgoingDataRate:vector ETV
attr interpolationmode linear
attr recordingmode vector
attr source throughput(packetPulled)
attr title "outgoing datarate"
attr unit bps
vector 15 WSN_EnergyEfficient.sensorNode0.wlan[0].queue droppedPacketLengthsQueueOverflow:vector ETV
attr interpolationmode none
attr recordingmode vector
attr source packetLength(packetDropReasonIsQueueOverflow(packetDropped))
attr title "dropped packet lengths: queue overflow"
attr unit b
vector 16 WSN_EnergyEfficient.sensorNode0.wlan[0].queue flowQueueingTime:vector ETV
attr interpolationmode none
attr recordingmode vector
attr source queueingTime(demuxFlow(packetPulled))
attr title "flow queueing times"
attr unit s
vector 17 WSN_EnergyEfficient.sensorNode0.wlan[0].queue flowIncomingDataRate:vector ETV
attr interpolationmode linear
attr recordingmode vector
attr source throughput(flowPacketLength(demuxFlow(packetPushStarted)))
attr title "flow specific incoming data rate"
attr unit bps
vector 18 WSN_EnergyEfficient.sensorNode0.wlan[0].queue flowOutgoingDataRate:vector ETV
attr interpolationmode linear
attr recordingmode vector
attr source throughput(flowPacketLength(demuxFlow(packetPulled)))
attr title "flow specific outgoing data rate"
attr unit bps
vector 19 WSN_EnergyEfficient.sensorNode0.wlan[0].mac packetDropNotAddressToUs:vector(packetBytes) ETV
attr interpolationmode none
attr recordingmode vector(packetBytes)
attr source packetDropReasonIsNotAddressedToUs(packetDropped)
attr title "packet drop: not addressed to us, packetBytes"
vector 20 WSN_EnergyEfficient.sensorNode0.wlan[0].mac packetDropIncorrectlyReceived:vector(packetBytes) ETV
attr interpolationmode none
attr recordingmode vector(packetBytes)
attr source packetDropReasonIsIncorrectlyReceived(packetDropped)
attr title "packet drop: incorrectly received, packetBytes"
vector 21 WSN_EnergyEfficient.sensorNode0.wlan[0].mac packetDropQueueOverflow:vector(packetBytes) ETV
attr interpolationmode none
attr recordingmode vector(packetBytes)
attr source packetDropReasonIsQueueOverflow(packetDropped)
attr title "packet drop: queue overflow, packetBytes"
vector 22 WSN_EnergyEfficient.sensorNode0.wlan[0].mac packetDropRetryLimitReached:vector(packetBytes) ETV
attr interpolationmode none
attr recordingmode vector(packetBytes)
attr source packetDropReasonIsRetryLimitReached(packetDropped)
attr title "packet drop: retry limit reached, packetBytes"
vector 23 WSN_EnergyEfficient.sensorNode0.wlan[0].mac packetDropBackoffLimitReached:vector(packetBytes) ETV
attr interpolationmode none
attr recordingmode vector(packetBytes)
attr source packetDropReasonIsCongestion(packetDropped)
attr title "packet drop: backoff limit reached, packetBytes"
vector 24 WSN_EnergyEfficient.sensorNode0.wlan[0].radio.energyConsumer powerConsumption:vector ETV
attr interpolationmode sample-hold
attr recordingmode vector
attr source powerConsumptionChanged
attr title "Power consumption"
attr unit W
vector 25 WSN_EnergyEfficient.sensorNode0.wlan[0].radio radioMode:vector ETV
attr interpolationmode sample-hold
attr recordingmode vector
attr source radioModeChanged
attr title "Radio mode"
vector 26 WSN_EnergyEfficient.sensorNode0.wlan[0].radio receptionState:vector ETV
attr interpolationmode sample-hold
attr recordingmode vector
attr source receptionStateChanged
attr title "Radio reception state"
vector 27 WSN_EnergyEfficient.sensorNode0.wlan[0].radio transmissionState:vector ETV
attr interpolationmode sample-hold
attr recordingmode vector
attr source transmissionStateChanged
attr title "Radio transmission state"
vector 28 WSN_EnergyEfficient.sensorNode0.wlan[0] packetDropInterfaceDown:vector(packetBytes) ETV
attr interpolationmode none
attr recordingmode vector(packetBytes)
attr source packetDropReasonIsInterfaceDown(packetDropped)
attr title "packet drops: interface down, packetBytes"
vector 29 WSN_EnergyEfficient.sensorNode0.wlan[0] packetDropNoCarrier:vector(packetBytes) ETV
attr interpolationmode none
attr recordingmode vector(packetBytes)
attr source packetDropReasonIsNoCarrier(packetDropped)
attr title "packet drops: no carrier, packetBytes"
vector 30 WSN_EnergyEfficient.sensorNode0.ipv4.ip packetDropAddressResolutionFailed:vector(packetBytes) ETV
attr interpolationmode none
attr recordingmode vector(packetBytes)
attr source packetDropReasonIsAddressResolutionFailed(packetDropped)
attr title "packet drop: address resolution failed, packetBytes"
vector 31 WSN_EnergyEfficient.sensorNode0.ipv4.ip packetDropHopLimitReached:vector(packetBytes) ETV
attr interpolationmode none
attr recordingmode vector(packetBytes)
attr source packetDropReasonIsHopLimitReached(packetDropped)
attr title "packet drop: hop limit reached, packetBytes"
vector 32 WSN_EnergyEfficient.sensorNode0.ipv4.ip packetDropForwardingDisabled:vector(packetBytes) ETV
attr interpolationmode none
attr recordingmode vector(packetBytes)
attr source packetDropReasonIsForwardingDisabled(packetDropped)
attr title "packet drop: forwarding disabled, packetBytes"
vector 33 WSN_EnergyEfficient.sensorNode0.ipv4.ip packetDropNoInterfaceFound:vector(packetBytes) ETV
attr interpolationmode none
attr recordingmode vector(packetBytes)
attr source packetDropReasonIsNoInterfaceFound(packetDropped)
attr title "packet drop: no interface found, packetBytes"
vector 34 WSN_EnergyEfficient.sensorNode0.ipv4.ip packetDropNoRouteFound:vector(packetBytes) ETV
attr interpolationmode none
attr recordingmode vector(packetBytes)
attr source packetDropReasonIsNoRouteFound(packetDropped)
attr title "packet drop: no route found, packetBytes"
vector 35 WSN_EnergyEfficient.sensorNode0.ipv4.ip packetDropUndefined:vector(packetBytes) ETV
attr interpolationmode none
attr recordingmode vector(packetBytes)
attr source packetDropReasonIsUndefined(packetDropped)
attr title "packet drop: undefined, packetBytes"
vector 36 WSN_EnergyEfficient.sensorNode0.ipv4.arp arpRequestSent:vector(packetBytes) ETV
attr recordingmode vector(packetBytes)
attr source arpRequestSent
attr title "ARP request sent, packetBytes"
vector 37 WSN_EnergyEfficient.sensorNode0.ipv4.arp arpReplySent:vector(packetBytes) ETV
attr recordingmode vector(packetBytes)
attr source arpReplySent
attr title "ARP replies sent, packetBytes"
vector 38 WSN_EnergyEfficient.sensorNode0.udp packetSent:vector(packetBytes) ETV
attr interpolationmode none
attr recordingmode vector(packetBytes)
attr source packetSent
attr title "packets sent, packetBytes"
vector 39 WSN_EnergyEfficient.sensorNode0.udp packetReceived:vector(packetBytes) ETV
attr interpolationmode none
attr recordingmode vector(packetBytes)
attr source packetReceived
attr title "packets received, packetBytes"
vector 40 WSN_EnergyEfficient.sensorNode0.udp passedUpPk:vector(count) ETV
attr interpolationmode none
attr recordingmode vector(count)
attr source packetSentToUpper
attr title "packets passed up, count"
vector 41 WSN_EnergyEfficient.sensorNode0.udp droppedPkWrongPort:vector(count) ETV
attr interpolationmode none
attr recordingmode vector(count)
attr source packetDropReasonIsNoPortFound(packetDropped)
attr title "packets dropped (wrong port), count"
vector 42 WSN_EnergyEfficient.sensorNode0.udp droppedPkBadChecksum:vector(count) ETV
attr interpolationmode none
attr recordingmode vector(count)
attr source packetDropReasonIsIncorrectlyReceived(packetDropped)
attr title "packets dropped (checksum error), count"
vector 43 WSN_EnergyEfficient.sensorNode0.app[0] rtt:vector ETV
attr interpolationmode none
attr recordingmode vector
attr title "ping round-trip time"
attr unit s
vector 44 WSN_EnergyEfficient.sensorNode0.app[0] numLost:vector ETV
attr interpolationmode none
attr recordingmode vector
attr title "pings lost"
vector 45 WSN_EnergyEfficient.sensorNode0.app[0] numOutOfOrderArrivals:vector ETV
attr interpolationmode none
attr recordingmode vector
attr title "ping out-of-order arrivals"
vector 46 WSN_EnergyEfficient.sensorNode0.app[0] pingTxSeq:vector ETV
attr interpolationmode none
attr recordingmode vector
attr title "ping tx seq"
vector 47 WSN_EnergyEfficient.sensorNode0.app[0] pingRxSeq:vector ETV
attr interpolationmode none
attr recordingmode vector
attr title "ping rx seq"
vector 48 WSN_EnergyEfficient.sensorNode0.app[1] packetReceived:vector(packetBytes) ETV
attr interpolationmode none
attr recordingmode vector(packetBytes)
attr source packetReceived
attr title "packets received, packetBytes"
vector 49 WSN_EnergyEfficient.sensorNode0.app[1] throughput:vector ETV
attr recordingmode vector
attr source throughput(packetReceived)
attr title throughput
attr unit bps
vector 50 WSN_EnergyEfficient.sensorNode0.app[1] packetSent:vector(packetBytes) ETV
attr interpolationmode none
attr recordingmode vector(packetBytes)
attr source packetSent
attr title "packets sent, packetBytes"
vector 51 WSN_EnergyEfficient.sensorNode0.app[1] rcvdPkLifetime:vector ETV
attr interpolationmode none
attr recordingmode vector
attr source dataAge(packetReceived)
attr title "received packet lifetime"
attr unit s
vector 52 WSN_EnergyEfficient.sensorNode0.app[1] rcvdPkSeqNo:vector ETV
attr interpolationmode none
attr recordingmode vector
attr source appPkSeqNo(packetReceived)
attr title "received packet sequence number"
vector 53 WSN_EnergyEfficient.sensorNode1.energyStorage powerConsumption:vector ETV
attr interpolationmode sample-hold
attr recordingmode vector
attr source powerConsumptionChanged
attr title "Power consumption"
attr unit W
vector 54 WSN_EnergyEfficient.sensorNode1.energyStorage powerGeneration:vector ETV
attr interpolationmode sample-hold
attr recordingmode vector
attr source powerGenerationChanged
attr title "Power generation"
attr unit W
vector 55 WSN_EnergyEfficient.sensorNode1.energyStorage residualEnergyCapacity:vector ETV
attr interpolationmode linear
attr recordingmode vector
attr source residualEnergyCapacityChanged
attr title "Residual energy capacity"
attr unit J
vector 56 WSN_EnergyEfficient.sensorNode1.energyGenerator powerGeneration:vector ETV
attr interpolationmode sample-hold
attr recordingmode vector
attr source powerGenerationChanged
attr title "Power generation"
attr unit W
vector 57 WSN_EnergyEfficient.sensorNode1.lo[0].lo rcvdPkFromHl:vector(packetBytes) ETV
attr interpolationmode none
attr recordingmode vector(packetBytes)
attr source packetReceivedFromUpper
attr title "packets received from higher layer, packetBytes"
vector 58 WSN_EnergyEfficient.sensorNode1.lo[0].lo passedUpPk:vector(packetBytes) ETV
attr interpolationmode none
attr recordingmode vector(packetBytes)
attr source packetSentToUpper
attr title "packets passed to higher layer, packetBytes"
vector 59 WSN_EnergyEfficient.sensorNode1.lo[0] packetDropInterfaceDown:vector(packetBytes) ETV
attr interpolationmode none
attr recordingmode vector(packetBytes)
attr source packetDropReasonIsInterfaceDown(packetDropped)
attr title "packet drops: interface down, packetBytes"
vector 60 WSN_EnergyEfficient.sensorNode1.lo[0] packetDropNoCarrier:vector(packetBytes) ETV
attr interpolationmode none
attr recordingmode vector(packetBytes)
attr source packetDropReasonIsNoCarrier(packetDropped)
attr title "packet drops: no carrier, packetBytes"
vector 61 WSN_EnergyEfficient.sensorNode1.wlan[0].queue queueLength:vector ETV
attr autoWarmupFilter false
attr interpolationmode sample-hold
attr recordingmode vector
attr source "warmup(atomic(constant0(packetPushEnded) + count(packetPushStarted) - count(packetPulled) - count(packetRemoved) - count(packetDropped)))"
attr title "queue length"
attr unit pk
vector 62 WSN_EnergyEfficient.sensorNode1.wlan[0].queue queueBitLength:vector ETV
attr autoWarmupFilter false
attr interpolationmode sample-hold
attr recordingmode vector
attr source "warmup(atomic(constant0(packetPushEnded) + sum(packetLength(packetPushStarted)) - sum(packetLength(packetPulled)) - sum(packetLength(packetRemoved)) - sum(packetLength(packetDropped))))"
attr title "queue bit length"
attr unit b
vector 63 WSN_EnergyEfficient.sensorNode1.wlan[0].queue queueingTime:vector ETV
attr interpolationmode none
attr recordingmode vector
attr source queueingTime(packetPulled)
attr title "queueing times"
attr unit s
vector 64 WSN_EnergyEfficient.sensorNode1.wlan[0].queue incomingPacketLengths:vector ETV
attr interpolationmode none
attr recordingmode vector
attr source packetLength(packetPushStarted)
attr title "incoming packet lengths"
attr unit b
vector 65 WSN_EnergyEfficient.sensorNode1.wlan[0].queue incomingDataRate:vector ETV
attr interpolationmode linear
attr recordingmode vector
attr source throughput(packetPushStarted)
attr title "incoming datarate"
attr unit bps
vector 66 WSN_EnergyEfficient.sensorNode1.wlan[0].queue outgoingPacketLengths:vector ETV
attr interpolationmode none
attr recordingmode vector
attr source packetLength(packetPulled)
attr title "outgoing packet lengths"
attr unit b
vector 67 WSN_EnergyEfficient.sensorNode1.wlan[0].queue outgoingDataRate:vector ETV
attr interpolationmode linear
attr recordingmode vector
attr source throughput(packetPulled)
attr title "outgoing datarate"
attr unit bps
vector 68 WSN_EnergyEfficient.sensorNode1.wlan[0].queue droppedPacketLengthsQueueOverflow:vector ETV
attr interpolationmode none
attr recordingmode vector
attr source packetLength(packetDropReasonIsQueueOverflow(packetDropped))
attr title "dropped packet lengths: queue overflow"
attr unit b
vector 69 WSN_EnergyEfficient.sensorNode1.wlan[0].queue flowQueueingTime:vector ETV
attr interpolationmode none
attr recordingmode vector
attr source queueingTime(demuxFlow(packetPulled))
attr title "flow queueing times"
attr unit s
vector 70 WSN_EnergyEfficient.sensorNode1.wlan[0].queue flowIncomingDataRate:vector ETV
attr interpolationmode linear
attr recordingmode vector
attr source throughput(flowPacketLength(demuxFlow(packetPushStarted)))
attr title "flow specific incoming data rate"
attr unit bps
vector 71 WSN_EnergyEfficient.sensorNode1.wlan[0].queue flowOutgoingDataRate:vector ETV
attr interpolationmode linear
attr recordingmode vector
attr source throughput(flowPacketLength(demuxFlow(packetPulled)))
attr title "flow specific outgoing data rate"
attr unit bps
vector 72 WSN_EnergyEfficient.sensorNode1.wlan[0].mac packetDropNotAddressToUs:vector(packetBytes) ETV
attr interpolationmode none
attr recordingmode vector(packetBytes)
attr source packetDropReasonIsNotAddressedToUs(packetDropped)
attr title "packet drop: not addressed to us, packetBytes"
vector 73 WSN_EnergyEfficient.sensorNode1.wlan[0].mac packetDropIncorrectlyReceived:vector(packetBytes) ETV
attr interpolationmode none
attr recordingmode vector(packetBytes)
attr source packetDropReasonIsIncorrectlyReceived(packetDropped)
attr title "packet drop: incorrectly received, packetBytes"
vector 74 WSN_EnergyEfficient.sensorNode1.wlan[0].mac packetDropQueueOverflow:vector(packetBytes) ETV
attr interpolationmode none
attr recordingmode vector(packetBytes)
attr source packetDropReasonIsQueueOverflow(packetDropped)
attr title "packet drop: queue overflow, packetBytes"
vector 75 WSN_EnergyEfficient.sensorNode1.wlan[0].mac packetDropRetryLimitReached:vector(packetBytes) ETV
attr interpolationmode none
attr recordingmode vector(packetBytes)
attr source packetDropReasonIsRetryLimitReached(packetDropped)
attr title "packet drop: retry limit reached, packetBytes"
vector 76 WSN_EnergyEfficient.sensorNode1.wlan[0].mac packetDropBackoffLimitReached:vector(packetBytes) ETV
attr interpolationmode none
attr recordingmode vector(packetBytes)
attr source packetDropReasonIsCongestion(packetDropped)
attr title "packet drop: backoff limit reached, packetBytes"
vector 77 WSN_EnergyEfficient.sensorNode1.wlan[0].radio.energyConsumer powerConsumption:vector ETV
attr interpolationmode sample-hold
attr recordingmode vector
attr source powerConsumptionChanged
attr title "Power consumption"
attr unit W
vector 78 WSN_EnergyEfficient.sensorNode1.wlan[0].radio radioMode:vector ETV
attr interpolationmode sample-hold
attr recordingmode vector
attr source radioModeChanged
attr title "Radio mode"
vector 79 WSN_EnergyEfficient.sensorNode1.wlan[0].radio receptionState:vector ETV
attr interpolationmode sample-hold
attr recordingmode vector
attr source receptionStateChanged
attr title "Radio reception state"
vector 80 WSN_EnergyEfficient.sensorNode1.wlan[0].radio transmissionState:vector ETV
attr interpolationmode sample-hold
attr recordingmode vector
attr source transmissionStateChanged
attr title "Radio transmission state"
vector 81 WSN_EnergyEfficient.sensorNode1.wlan[0] packetDropInterfaceDown:vector(packetBytes) ETV
attr interpolationmode none
attr recordingmode vector(packetBytes)
attr source packetDropReasonIsInterfaceDown(packetDropped)
attr title "packet drops: interface down, packetBytes"
vector 82 WSN_EnergyEfficient.sensorNode1.wlan[0] packetDropNoCarrier:vector(packetBytes) ETV
attr interpolationmode none
attr recordingmode vector(packetBytes)
attr source packetDropReasonIsNoCarrier(packetDropped)
attr title "packet drops: no carrier, packetBytes"
vector 83 WSN_EnergyEfficient.sensorNode1.ipv4.ip packetDropAddressResolutionFailed:vector(packetBytes) ETV
attr interpolationmode none
attr recordingmode vector(packetBytes)
attr source packetDropReasonIsAddressResolutionFailed(packetDropped)
attr title "packet drop: address resolution failed, packetBytes"
vector 84 WSN_EnergyEfficient.sensorNode1.ipv4.ip packetDropHopLimitReached:vector(packetBytes) ETV
attr interpolationmode none
attr recordingmode vector(packetBytes)
attr source packetDropReasonIsHopLimitReached(packetDropped)
attr title "packet drop: hop limit reached, packetBytes"
vector 85 WSN_EnergyEfficient.sensorNode1.ipv4.ip packetDropForwardingDisabled:vector(packetBytes) ETV
attr interpolationmode none
attr recordingmode vector(packetBytes)
attr source packetDropReasonIsForwardingDisabled(packetDropped)
attr title "packet drop: forwarding disabled, packetBytes"
vector 86 WSN_EnergyEfficient.sensorNode1.ipv4.ip packetDropNoInterfaceFound:vector(packetBytes) ETV
attr interpolationmode none
attr recordingmode vector(packetBytes)
attr source packetDropReasonIsNoInterfaceFound(packetDropped)
attr title "packet drop: no interface found, packetBytes"
vector 87 WSN_EnergyEfficient.sensorNode1.ipv4.ip packetDropNoRouteFound:vector(packetBytes) ETV
attr interpolationmode none
attr recordingmode vector(packetBytes)
attr source packetDropReasonIsNoRouteFound(packetDropped)
attr title "packet drop: no route found, packetBytes"
vector 88 WSN_EnergyEfficient.sensorNode1.ipv4.ip packetDropUndefined:vector(packetBytes) ETV
attr interpolationmode none
attr recordingmode vector(packetBytes)
attr source packetDropReasonIsUndefined(packetDropped)
attr title "packet drop: undefined, packetBytes"
vector 89 WSN_EnergyEfficient.sensorNode1.ipv4.arp arpRequestSent:vector(packetBytes) ETV
attr recordingmode vector(packetBytes)
attr source arpRequestSent
attr title "ARP request sent, packetBytes"
vector 90 WSN_EnergyEfficient.sensorNode1.ipv4.arp arpReplySent:vector(packetBytes) ETV
attr recordingmode vector(packetBytes)
attr source arpReplySent
attr title "ARP replies sent, packetBytes"
vector 91 WSN_EnergyEfficient.sensorNode1.udp packetSent:vector(packetBytes) ETV
attr interpolationmode none
attr recordingmode vector(packetBytes)
attr source packetSent
attr title "packets sent, packetBytes"
vector 92 WSN_EnergyEfficient.sensorNode1.udp packetReceived:vector(packetBytes) ETV
attr interpolationmode none
attr recordingmode vector(packetBytes)
attr source packetReceived
attr title "packets received, packetBytes"
vector 93 WSN_EnergyEfficient.sensorNode1.udp passedUpPk:vector(count) ETV
attr interpolationmode none
attr recordingmode vector(count)
attr source packetSentToUpper
attr title "packets passed up, count"
vector 94 WSN_EnergyEfficient.sensorNode1.udp droppedPkWrongPort:vector(count) ETV
attr interpolationmode none
attr recordingmode vector(count)
attr source packetDropReasonIsNoPortFound(packetDropped)
attr title "packets dropped (wrong port), count"
vector 95 WSN_EnergyEfficient.sensorNode1.udp droppedPkBadChecksum:vector(count) ETV
attr interpolationmode none
attr recordingmode vector(count)
attr source packetDropReasonIsIncorrectlyReceived(packetDropped)
attr title "packets dropped (checksum error), count"
vector 96 WSN_EnergyEfficient.sensorNode1.app[0] rtt:vector ETV
attr interpolationmode none
attr recordingmode vector
attr title "ping round-trip time"
attr unit s
vector 97 WSN_EnergyEfficient.sensorNode1.app[0] numLost:vector ETV
attr interpolationmode none
attr recordingmode vector
attr title "pings lost"
vector 98 WSN_EnergyEfficient.sensorNode1.app[0] numOutOfOrderArrivals:vector ETV
attr interpolationmode none
attr recordingmode vector
attr title "ping out-of-order arrivals"
vector 99 WSN_EnergyEfficient.sensorNode1.app[0] pingTxSeq:vector ETV
attr interpolationmode none
attr recordingmode vector
attr title "ping tx seq"
vector 100 WSN_EnergyEfficient.sensorNode1.app[0] pingRxSeq:vector ETV
attr interpolationmode none
attr recordingmode vector
attr title "ping rx seq"
vector 101 WSN_EnergyEfficient.sensorNode1.app[1] packetReceived:vector(packetBytes) ETV
attr interpolationmode none
attr recordingmode vector(packetBytes)
attr source packetReceived
attr title "packets received, packetBytes"
vector 102 WSN_EnergyEfficient.sensorNode1.app[1] throughput:vector ETV
attr recordingmode vector
attr source throughput(packetReceived)
attr title throughput
attr unit bps
vector 103 WSN_EnergyEfficient.sensorNode1.app[1] packetSent:vector(packetBytes) ETV
attr interpolationmode none
attr recordingmode vector(packetBytes)
attr source packetSent
attr title "packets sent, packetBytes"
vector 104 WSN_EnergyEfficient.sensorNode1.app[1] rcvdPkLifetime:vector ETV
attr interpolationmode none
attr recordingmode vector
attr source dataAge(packetReceived)
attr title "received packet lifetime"
attr unit s
vector 105 WSN_EnergyEfficient.sensorNode1.app[1] rcvdPkSeqNo:vector ETV
attr interpolationmode none
attr recordingmode vector
attr source appPkSeqNo(packetReceived)
attr title "received packet sequence number"
vector 106 WSN_EnergyEfficient.sensorNode2.energyStorage powerConsumption:vector ETV
attr interpolationmode sample-hold
attr recordingmode vector
attr source powerConsumptionChanged
attr title "Power consumption"
attr unit W
vector 107 WSN_EnergyEfficient.sensorNode2.energyStorage powerGeneration:vector ETV
attr interpolationmode sample-hold
attr recordingmode vector
attr source powerGenerationChanged
attr title "Power generation"
attr unit W
vector 108 WSN_EnergyEfficient.sensorNode2.energyStorage residualEnergyCapacity:vector ETV
attr interpolationmode linear
attr recordingmode vector
attr source residualEnergyCapacityChanged
attr title "Residual energy capacity"
attr unit J
vector 109 WSN_EnergyEfficient.sensorNode2.energyGenerator powerGeneration:vector ETV
attr interpolationmode sample-hold
attr recordingmode vector
attr source powerGenerationChanged
attr title "Power generation"
attr unit W
vector 110 WSN_EnergyEfficient.sensorNode2.lo[0].lo rcvdPkFromHl:vector(packetBytes) ETV
attr interpolationmode none
attr recordingmode vector(packetBytes)
attr source packetReceivedFromUpper
attr title "packets received from higher layer, packetBytes"
vector 111 WSN_EnergyEfficient.sensorNode2.lo[0].lo passedUpPk:vector(packetBytes) ETV
attr interpolationmode none
attr recordingmode vector(packetBytes)
attr source packetSentToUpper
attr title "packets passed to higher layer, packetBytes"
vector 112 WSN_EnergyEfficient.sensorNode2.lo[0] packetDropInterfaceDown:vector(packetBytes) ETV
attr interpolationmode none
attr recordingmode vector(packetBytes)
attr source packetDropReasonIsInterfaceDown(packetDropped)
attr title "packet drops: interface down, packetBytes"
vector 113 WSN_EnergyEfficient.sensorNode2.lo[0] packetDropNoCarrier:vector(packetBytes) ETV
attr interpolationmode none
attr recordingmode vector(packetBytes)
attr source packetDropReasonIsNoCarrier(packetDropped)
attr title "packet drops: no carrier, packetBytes"
vector 114 WSN_EnergyEfficient.sensorNode2.wlan[0].queue queueLength:vector ETV
attr autoWarmupFilter false
attr interpolationmode sample-hold
attr recordingmode vector
attr source "warmup(atomic(constant0(packetPushEnded) + count(packetPushStarted) - count(packetPulled) - count(packetRemoved) - count(packetDropped)))"
attr title "queue length"
attr unit pk
vector 115 WSN_EnergyEfficient.sensorNode2.wlan[0].queue queueBitLength:vector ETV
attr autoWarmupFilter false
attr interpolationmode sample-hold
attr recordingmode vector
attr source "warmup(atomic(constant0(packetPushEnded) + sum(packetLength(packetPushStarted)) - sum(packetLength(packetPulled)) - sum(packetLength(packetRemoved)) - sum(packetLength(packetDropped))))"
attr title "queue bit length"
attr unit b
vector 116 WSN_EnergyEfficient.sensorNode2.wlan[0].queue queueingTime:vector ETV
attr interpolationmode none
attr recordingmode vector
attr source queueingTime(packetPulled)
attr title "queueing times"
attr unit s
vector 117 WSN_EnergyEfficient.sensorNode2.wlan[0].queue incomingPacketLengths:vector ETV
attr interpolationmode none
attr recordingmode vector
attr source packetLength(packetPushStarted)
attr title "incoming packet lengths"
attr unit b
vector 118 WSN_EnergyEfficient.sensorNode2.wlan[0].queue incomingDataRate:vector ETV
attr interpolationmode linear
attr recordingmode vector
attr source throughput(packetPushStarted)
attr title "incoming datarate"
attr unit bps
vector 119 WSN_EnergyEfficient.sensorNode2.wlan[0].queue outgoingPacketLengths:vector ETV
attr interpolationmode none
attr recordingmode vector
attr source packetLength(packetPulled)
attr title "outgoing packet lengths"
attr unit b
vector 120 WSN_EnergyEfficient.sensorNode2.wlan[0].queue outgoingDataRate:vector ETV
attr interpolationmode linear
attr recordingmode vector
attr source throughput(packetPulled)
attr title "outgoing datarate"
attr unit bps
vector 121 WSN_EnergyEfficient.sensorNode2.wlan[0].queue droppedPacketLengthsQueueOverflow:vector ETV
attr interpolationmode none
attr recordingmode vector
attr source packetLength(packetDropReasonIsQueueOverflow(packetDropped))
attr title "dropped packet lengths: queue overflow"
attr unit b
vector 122 WSN_EnergyEfficient.sensorNode2.wlan[0].queue flowQueueingTime:vector ETV
attr interpolationmode none
attr recordingmode vector
attr source queueingTime(demuxFlow(packetPulled))
attr title "flow queueing times"
attr unit s
vector 123 WSN_EnergyEfficient.sensorNode2.wlan[0].queue flowIncomingDataRate:vector ETV
attr interpolationmode linear
attr recordingmode vector
attr source throughput(flowPacketLength(demuxFlow(packetPushStarted)))
attr title "flow specific incoming data rate"
attr unit bps
vector 124 WSN_EnergyEfficient.sensorNode2.wlan[0].queue flowOutgoingDataRate:vector ETV
attr interpolationmode linear
attr recordingmode vector
attr source throughput(flowPacketLength(demuxFlow(packetPulled)))
attr title "flow specific outgoing data rate"
attr unit bps
vector 125 WSN_EnergyEfficient.sensorNode2.wlan[0].mac packetDropNotAddressToUs:vector(packetBytes) ETV
attr interpolationmode none
attr recordingmode vector(packetBytes)
attr source packetDropReasonIsNotAddressedToUs(packetDropped)
attr title "packet drop: not addressed to us, packetBytes"
vector 126 WSN_EnergyEfficient.sensorNode2.wlan[0].mac packetDropIncorrectlyReceived:vector(packetBytes) ETV
attr interpolationmode none
attr recordingmode vector(packetBytes)
attr source packetDropReasonIsIncorrectlyReceived(packetDropped)
attr title "packet drop: incorrectly received, packetBytes"
vector 127 WSN_EnergyEfficient.sensorNode2.wlan[0].mac packetDropQueueOverflow:vector(packetBytes) ETV
attr interpolationmode none
attr recordingmode vector(packetBytes)
attr source packetDropReasonIsQueueOverflow(packetDropped)
attr title "packet drop: queue overflow, packetBytes"
vector 128 WSN_EnergyEfficient.sensorNode2.wlan[0].mac packetDropRetryLimitReached:vector(packetBytes) ETV
attr interpolationmode none
attr recordingmode vector(packetBytes)
attr source packetDropReasonIsRetryLimitReached(packetDropped)
attr title "packet drop: retry limit reached, packetBytes"
vector 129 WSN_EnergyEfficient.sensorNode2.wlan[0].mac packetDropBackoffLimitReached:vector(packetBytes) ETV
attr interpolationmode none
attr recordingmode vector(packetBytes)
attr source packetDropReasonIsCongestion(packetDropped)
attr title "packet drop: backoff limit reached, packetBytes"
vector 130 WSN_EnergyEfficient.sensorNode2.wlan[0].radio.energyConsumer powerConsumption:vector ETV
attr interpolationmode sample-hold
attr recordingmode vector
attr source powerConsumptionChanged
attr title "Power consumption"
attr unit W
vector 131 WSN_EnergyEfficient.sensorNode2.wlan[0].radio radioMode:vector ETV
attr interpolationmode sample-hold
attr recordingmode vector
attr source radioModeChanged
attr title "Radio mode"
vector 132 WSN_EnergyEfficient.sensorNode2.wlan[0].radio receptionState:vector ETV
attr interpolationmode sample-hold
attr recordingmode vector
attr source receptionStateChanged
attr title "Radio reception state"
vector 133 WSN_EnergyEfficient.sensorNode2.wlan[0].radio transmissionState:vector ETV
attr interpolationmode sample-hold
attr recordingmode vector
attr source transmissionStateChanged
attr title "Radio transmission state"
vector 134 WSN_EnergyEfficient.sensorNode2.wlan[0] packetDropInterfaceDown:vector(packetBytes) ETV
attr interpolationmode none
attr recordingmode vector(packetBytes)
attr source packetDropReasonIsInterfaceDown(packetDropped)
attr title "packet drops: interface down, packetBytes"
vector 135 WSN_EnergyEfficient.sensorNode2.wlan[0] packetDropNoCarrier:vector(packetBytes) ETV
attr interpolationmode none
attr recordingmode vector(packetBytes)
attr source packetDropReasonIsNoCarrier(packetDropped)
attr title "packet drops: no carrier, packetBytes"
vector 136 WSN_EnergyEfficient.sensorNode2.ipv4.ip packetDropAddressResolutionFailed:vector(packetBytes) ETV
attr interpolationmode none
attr recordingmode vector(packetBytes)
attr source packetDropReasonIsAddressResolutionFailed(packetDropped)
attr title "packet drop: address resolution failed, packetBytes"
vector 137 WSN_EnergyEfficient.sensorNode2.ipv4.ip packetDropHopLimitReached:vector(packetBytes) ETV
attr interpolationmode none
attr recordingmode vector(packetBytes)
attr source packetDropReasonIsHopLimitReached(packetDropped)
attr title "packet drop: hop limit reached, packetBytes"
vector 138 WSN_EnergyEfficient.sensorNode2.ipv4.ip packetDropForwardingDisabled:vector(packetBytes) ETV
attr interpolationmode none
attr recordingmode vector(packetBytes)
attr source packetDropReasonIsForwardingDisabled(packetDropped)
attr title "packet drop: forwarding disabled, packetBytes"
vector 139 WSN_EnergyEfficient.sensorNode2.ipv4.ip packetDropNoInterfaceFound:vector(packetBytes) ETV
attr interpolationmode none
attr recordingmode vector(packetBytes)
attr source packetDropReasonIsNoInterfaceFound(packetDropped)
attr title "packet drop: no interface found, packetBytes"
vector 140 WSN_EnergyEfficient.sensorNode2.ipv4.ip packetDropNoRouteFound:vector(packetBytes) ETV
attr interpolationmode none
attr recordingmode vector(packetBytes)
attr source packetDropReasonIsNoRouteFound(packetDropped)
attr title "packet drop: no route found, packetBytes"
vector 141 WSN_EnergyEfficient.sensorNode2.ipv4.ip packetDropUndefined:vector(packetBytes) ETV
attr interpolationmode none
attr recordingmode vector(packetBytes)
attr source packetDropReasonIsUndefined(packetDropped)
attr title "packet drop: undefined, packetBytes"
vector 142 WSN_EnergyEfficient.sensorNode2.ipv4.arp arpRequestSent:vector(packetBytes) ETV
attr recordingmode vector(packetBytes)
attr source arpRequestSent
attr title "ARP request sent, packetBytes"
vector 143 WSN_EnergyEfficient.sensorNode2.ipv4.arp arpReplySent:vector(packetBytes) ETV
attr recordingmode vector(packetBytes)
attr source arpReplySent
attr title "ARP replies sent, packetBytes"
vector 144 WSN_EnergyEfficient.sensorNode2.udp packetSent:vector(packetBytes) ETV
attr interpolationmode none
attr recordingmode vector(packetBytes)
attr source packetSent
attr title "packets sent, packetBytes"
vector 145 WSN_EnergyEfficient.sensorNode2.udp packetReceived:vector(packetBytes) ETV
attr interpolationmode none
attr recordingmode vector(packetBytes)
attr source packetReceived
attr title "packets received, packetBytes"
vector 146 WSN_EnergyEfficient.sensorNode2.udp passedUpPk:vector(count) ETV
attr interpolationmode none
attr recordingmode vector(count)
attr source packetSentToUpper
attr title "packets passed up, count"
vector 147 WSN_EnergyEfficient.sensorNode2.udp droppedPkWrongPort:vector(count) ETV
attr interpolationmode none
attr recordingmode vector(count)
attr source packetDropReasonIsNoPortFound(packetDropped)
attr title "packets dropped (wrong port), count"
vector 148 WSN_EnergyEfficient.sensorNode2.udp droppedPkBadChecksum:vector(count) ETV
attr interpolationmode none
attr recordingmode vector(count)
attr source packetDropReasonIsIncorrectlyReceived(packetDropped)
attr title "packets dropped (checksum error), count"
vector 149 WSN_EnergyEfficient.sensorNode2.app[0] rtt:vector ETV
attr interpolationmode none
attr recordingmode vector
attr title "ping round-trip time"
attr unit s
vector 150 WSN_EnergyEfficient.sensorNode2.app[0] numLost:vector ETV
attr interpolationmode none
attr recordingmode vector
attr title "pings lost"
vector 151 WSN_EnergyEfficient.sensorNode2.app[0] numOutOfOrderArrivals:vector ETV
attr interpolationmode none
attr recordingmode vector
attr title "ping out-of-order arrivals"
vector 152 WSN_EnergyEfficient.sensorNode2.app[0] pingTxSeq:vector ETV
attr interpolationmode none
attr recordingmode vector
attr title "ping tx seq"
vector 153 WSN_EnergyEfficient.sensorNode2.app[0] pingRxSeq:vector ETV
attr interpolationmode none
attr recordingmode vector
attr title "ping rx seq"
vector 154 WSN_EnergyEfficient.sensorNode2.app[1] packetReceived:vector(packetBytes) ETV
attr interpolationmode none
attr recordingmode vector(packetBytes)
attr source packetReceived
attr title "packets received, packetBytes"
vector 155 WSN_EnergyEfficient.sensorNode2.app[1] throughput:vector ETV
attr recordingmode vector
attr source throughput(packetReceived)
attr title throughput
attr unit bps
vector 156 WSN_EnergyEfficient.sensorNode2.app[1] packetSent:vector(packetBytes) ETV
attr interpolationmode none
attr recordingmode vector(packetBytes)
attr source packetSent
attr title "packets sent, packetBytes"
vector 157 WSN_EnergyEfficient.sensorNode2.app[1] rcvdPkLifetime:vector ETV
attr interpolationmode none
attr recordingmode vector
attr source dataAge(packetReceived)
attr title "received packet lifetime"
attr unit s
vector 158 WSN_EnergyEfficient.sensorNode2.app[1] rcvdPkSeqNo:vector ETV
attr interpolationmode none
attr recordingmode vector
attr source appPkSeqNo(packetReceived)
attr title "received packet sequence number"
vector 159 WSN_EnergyEfficient.sensorNode3.energyStorage powerConsumption:vector ETV
attr interpolationmode sample-hold
attr recordingmode vector
attr source powerConsumptionChanged
attr title "Power consumption"
attr unit W
vector 160 WSN_EnergyEfficient.sensorNode3.energyStorage powerGeneration:vector ETV
attr interpolationmode sample-hold
attr recordingmode vector
attr source powerGenerationChanged
attr title "Power generation"
attr unit W
vector 161 WSN_EnergyEfficient.sensorNode3.energyStorage residualEnergyCapacity:vector ETV
attr interpolationmode linear
attr recordingmode vector
attr source residualEnergyCapacityChanged
attr title "Residual energy capacity"
attr unit J
vector 162 WSN_EnergyEfficient.sensorNode3.energyGenerator powerGeneration:vector ETV
attr interpolationmode sample-hold
attr recordingmode vector
attr source powerGenerationChanged
attr title "Power generation"
attr unit W
vector 163 WSN_EnergyEfficient.sensorNode3.lo[0].lo rcvdPkFromHl:vector(packetBytes) ETV
attr interpolationmode none
attr recordingmode vector(packetBytes)
attr source packetReceivedFromUpper
attr title "packets received from higher layer, packetBytes"
vector 164 WSN_EnergyEfficient.sensorNode3.lo[0].lo passedUpPk:vector(packetBytes) ETV
attr interpolationmode none
attr recordingmode vector(packetBytes)
attr source packetSentToUpper
attr title "packets passed to higher layer, packetBytes"
vector 165 WSN_EnergyEfficient.sensorNode3.lo[0] packetDropInterfaceDown:vector(packetBytes) ETV
attr interpolationmode none
attr recordingmode vector(packetBytes)
attr source packetDropReasonIsInterfaceDown(packetDropped)
attr title "packet drops: interface down, packetBytes"
vector 166 WSN_EnergyEfficient.sensorNode3.lo[0] packetDropNoCarrier:vector(packetBytes) ETV
attr interpolationmode none
attr recordingmode vector(packetBytes)
attr source packetDropReasonIsNoCarrier(packetDropped)
attr title "packet drops: no carrier, packetBytes"
vector 167 WSN_EnergyEfficient.sensorNode3.wlan[0].queue queueLength:vector ETV
attr autoWarmupFilter false
attr interpolationmode sample-hold
attr recordingmode vector
attr source "warmup(atomic(constant0(packetPushEnded) + count(packetPushStarted) - count(packetPulled) - count(packetRemoved) - count(packetDropped)))"
attr title "queue length"
attr unit pk
vector 168 WSN_EnergyEfficient.sensorNode3.wlan[0].queue queueBitLength:vector ETV
attr autoWarmupFilter false
attr interpolationmode sample-hold
attr recordingmode vector
attr source "warmup(atomic(constant0(packetPushEnded) + sum(packetLength(packetPushStarted)) - sum(packetLength(packetPulled)) - sum(packetLength(packetRemoved)) - sum(packetLength(packetDropped))))"
attr title "queue bit length"
attr unit b
vector 169 WSN_EnergyEfficient.sensorNode3.wlan[0].queue queueingTime:vector ETV
attr interpolationmode none
attr recordingmode vector
attr source queueingTime(packetPulled)
attr title "queueing times"
attr unit s
vector 170 WSN_EnergyEfficient.sensorNode3.wlan[0].queue incomingPacketLengths:vector ETV
attr interpolationmode none
attr recordingmode vector
attr source packetLength(packetPushStarted)
attr title "incoming packet lengths"
attr unit b
vector 171 WSN_EnergyEfficient.sensorNode3.wlan[0].queue incomingDataRate:vector ETV
attr interpolationmode linear
attr recordingmode vector
attr source throughput(packetPushStarted)
attr title "incoming datarate"
attr unit bps
vector 172 WSN_EnergyEfficient.sensorNode3.wlan[0].queue outgoingPacketLengths:vector ETV
attr interpolationmode none
attr recordingmode vector
attr source packetLength(packetPulled)
attr title "outgoing packet lengths"
attr unit b
vector 173 WSN_EnergyEfficient.sensorNode3.wlan[0].queue outgoingDataRate:vector ETV
attr interpolationmode linear
attr recordingmode vector
attr source throughput(packetPulled)
attr title "outgoing datarate"
attr unit bps
vector 174 WSN_EnergyEfficient.sensorNode3.wlan[0].queue droppedPacketLengthsQueueOverflow:vector ETV
attr interpolationmode none
attr recordingmode vector
attr source packetLength(packetDropReasonIsQueueOverflow(packetDropped))
attr title "dropped packet lengths: queue overflow"
attr unit b
vector 175 WSN_EnergyEfficient.sensorNode3.wlan[0].queue flowQueueingTime:vector ETV
attr interpolationmode none
attr recordingmode vector
attr source queueingTime(demuxFlow(packetPulled))
attr title "flow queueing times"
attr unit s
vector 176 WSN_EnergyEfficient.sensorNode3.wlan[0].queue flowIncomingDataRate:vector ETV
attr interpolationmode linear
attr recordingmode vector
attr source throughput(flowPacketLength(demuxFlow(packetPushStarted)))
attr title "flow specific incoming data rate"
attr unit bps
vector 177 WSN_EnergyEfficient.sensorNode3.wlan[0].queue flowOutgoingDataRate:vector ETV
attr interpolationmode linear
attr recordingmode vector
attr source throughput(flowPacketLength(demuxFlow(packetPulled)))
attr title "flow specific outgoing data rate"
attr unit bps
vector 178 WSN_EnergyEfficient.sensorNode3.wlan[0].mac packetDropNotAddressToUs:vector(packetBytes) ETV
attr interpolationmode none
attr recordingmode vector(packetBytes)
attr source packetDropReasonIsNotAddressedToUs(packetDropped)
attr title "packet drop: not addressed to us, packetBytes"
vector 179 WSN_EnergyEfficient.sensorNode3.wlan[0].mac packetDropIncorrectlyReceived:vector(packetBytes) ETV
attr interpolationmode none
attr recordingmode vector(packetBytes)
attr source packetDropReasonIsIncorrectlyReceived(packetDropped)
attr title "packet drop: incorrectly received, packetBytes"
vector 180 WSN_EnergyEfficient.sensorNode3.wlan[0].mac packetDropQueueOverflow:vector(packetBytes) ETV
attr interpolationmode none
attr recordingmode vector(packetBytes)
attr source packetDropReasonIsQueueOverflow(packetDropped)
attr title "packet drop: queue overflow, packetBytes"
vector 181 WSN_EnergyEfficient.sensorNode3.wlan[0].mac packetDropRetryLimitReached:vector(packetBytes) ETV
attr interpolationmode none
attr recordingmode vector(packetBytes)
attr source packetDropReasonIsRetryLimitReached(packetDropped)
attr title "packet drop: retry limit reached, packetBytes"
vector 182 WSN_EnergyEfficient.sensorNode3.wlan[0].mac packetDropBackoffLimitReached:vector(packetBytes) ETV
attr interpolationmode none
attr recordingmode vector(packetBytes)
attr source packetDropReasonIsCongestion(packetDropped)
attr title "packet drop: backoff limit reached, packetBytes"
vector 183 WSN_EnergyEfficient.sensorNode3.wlan[0].radio.energyConsumer powerConsumption:vector ETV
attr interpolationmode sample-hold
attr recordingmode vector
attr source powerConsumptionChanged
attr title "Power consumption"
attr unit W
vector 184 WSN_EnergyEfficient.sensorNode3.wlan[0].radio radioMode:vector ETV
attr interpolationmode sample-hold
attr recordingmode vector
attr source radioModeChanged
attr title "Radio mode"
vector 185 WSN_EnergyEfficient.sensorNode3.wlan[0].radio receptionState:vector ETV
attr interpolationmode sample-hold
attr recordingmode vector
attr source receptionStateChanged
attr title "Radio reception state"
vector 186 WSN_EnergyEfficient.sensorNode3.wlan[0].radio transmissionState:vector ETV
attr interpolationmode sample-hold
attr recordingmode vector
attr source transmissionStateChanged
attr title "Radio transmission state"
vector 187 WSN_EnergyEfficient.sensorNode3.wlan[0] packetDropInterfaceDown:vector(packetBytes) ETV
attr interpolationmode none
attr recordingmode vector(packetBytes)
attr source packetDropReasonIsInterfaceDown(packetDropped)
attr title "packet drops: interface down, packetBytes"
vector 188 WSN_EnergyEfficient.sensorNode3.wlan[0] packetDropNoCarrier:vector(packetBytes) ETV
attr interpolationmode none
attr recordingmode vector(packetBytes)
attr source packetDropReasonIsNoCarrier(packetDropped)
attr title "packet drops: no carrier, packetBytes"
vector 189 WSN_EnergyEfficient.sensorNode3.ipv4.ip packetDropAddressResolutionFailed:vector(packetBytes) ETV
attr interpolationmode none
attr recordingmode vector(packetBytes)
attr source packetDropReasonIsAddressResolutionFailed(packetDropped)
attr title "packet drop: address resolution failed, packetBytes"
vector 190 WSN_EnergyEfficient.sensorNode3.ipv4.ip packetDropHopLimitReached:vector(packetBytes) ETV
attr interpolationmode none
attr recordingmode vector(packetBytes)
attr source packetDropReasonIsHopLimitReached(packetDropped)
attr title "packet drop: hop limit reached, packetBytes"
vector 191 WSN_EnergyEfficient.sensorNode3.ipv4.ip packetDropForwardingDisabled:vector(packetBytes) ETV
attr interpolationmode none
attr recordingmode vector(packetBytes)
attr source packetDropReasonIsForwardingDisabled(packetDropped)
attr title "packet drop: forwarding disabled, packetBytes"
vector 192 WSN_EnergyEfficient.sensorNode3.ipv4.ip packetDropNoInterfaceFound:vector(packetBytes) ETV
attr interpolationmode none
attr recordingmode vector(packetBytes)
attr source packetDropReasonIsNoInterfaceFound(packetDropped)
attr title "packet drop: no interface found, packetBytes"
vector 193 WSN_EnergyEfficient.sensorNode3.ipv4.ip packetDropNoRouteFound:vector(packetBytes) ETV
attr interpolationmode none
attr recordingmode vector(packetBytes)
attr source packetDropReasonIsNoRouteFound(packetDropped)
attr title "packet drop: no route found, packetBytes"
vector 194 WSN_EnergyEfficient.sensorNode3.ipv4.ip packetDropUndefined:vector(packetBytes) ETV
attr interpolationmode none
attr recordingmode vector(packetBytes)
attr source packetDropReasonIsUndefined(packetDropped)
attr title "packet drop: undefined, packetBytes"
vector 195 WSN_EnergyEfficient.sensorNode3.ipv4.arp arpRequestSent:vector(packetBytes) ETV
attr recordingmode vector(packetBytes)
attr source arpRequestSent
attr title "ARP request sent, packetBytes"
vector 196 WSN_EnergyEfficient.sensorNode3.ipv4.arp arpReplySent:vector(packetBytes) ETV
attr recordingmode vector(packetBytes)
attr source arpReplySent
attr title "ARP replies sent, packetBytes"
vector 197 WSN_EnergyEfficient.sensorNode3.udp packetSent:vector(packetBytes) ETV
attr interpolationmode none
attr recordingmode vector(packetBytes)
attr source packetSent
attr title "packets sent, packetBytes"
vector 198 WSN_EnergyEfficient.sensorNode3.udp packetReceived:vector(packetBytes) ETV
attr interpolationmode none
attr recordingmode vector(packetBytes)
attr source packetReceived
attr title "packets received, packetBytes"
vector 199 WSN_EnergyEfficient.sensorNode3.udp passedUpPk:vector(count) ETV
attr interpolationmode none
attr recordingmode vector(count)
attr source packetSentToUpper
attr title "packets passed up, count"
vector 200 WSN_EnergyEfficient.sensorNode3.udp droppedPkWrongPort:vector(count) ETV
attr interpolationmode none
attr recordingmode vector(count)
attr source packetDropReasonIsNoPortFound(packetDropped)
attr title "packets dropped (wrong port), count"
vector 201 WSN_EnergyEfficient.sensorNode3.udp droppedPkBadChecksum:vector(count) ETV
attr interpolationmode none
attr recordingmode vector(count)
attr source packetDropReasonIsIncorrectlyReceived(packetDropped)
attr title "packets dropped (checksum error), count"
vector 202 WSN_EnergyEfficient.sensorNode3.app[0] rtt:vector ETV
attr interpolationmode none
attr recordingmode vector
attr title "ping round-trip time"
attr unit s
vector 203 WSN_EnergyEfficient.sensorNode3.app[0] numLost:vector ETV
attr interpolationmode none
attr recordingmode vector
attr title "pings lost"
vector 204 WSN_EnergyEfficient.sensorNode3.app[0] numOutOfOrderArrivals:vector ETV
attr interpolationmode none
attr recordingmode vector
attr title "ping out-of-order arrivals"
vector 205 WSN_EnergyEfficient.sensorNode3.app[0] pingTxSeq:vector ETV
attr interpolationmode none
attr recordingmode vector
attr title "ping tx seq"
vector 206 WSN_EnergyEfficient.sensorNode3.app[0] pingRxSeq:vector ETV
attr interpolationmode none
attr recordingmode vector
attr title "ping rx seq"
vector 207 WSN_EnergyEfficient.sensorNode3.app[1] packetReceived:vector(packetBytes) ETV
attr interpolationmode none
attr recordingmode vector(packetBytes)
attr source packetReceived
attr title "packets received, packetBytes"
vector 208 WSN_EnergyEfficient.sensorNode3.app[1] throughput:vector ETV
attr recordingmode vector
attr source throughput(packetReceived)
attr title throughput
attr unit bps
vector 209 WSN_EnergyEfficient.sensorNode3.app[1] packetSent:vector(packetBytes) ETV
attr interpolationmode none
attr recordingmode vector(packetBytes)
attr source packetSent
attr title "packets sent, packetBytes"
vector 210 WSN_EnergyEfficient.sensorNode3.app[1] rcvdPkLifetime:vector ETV
attr interpolationmode none
attr recordingmode vector
attr source dataAge(packetReceived)
attr title "received packet lifetime"
attr unit s
vector 211 WSN_EnergyEfficient.sensorNode3.app[1] rcvdPkSeqNo:vector ETV
attr interpolationmode none
attr recordingmode vector
attr source appPkSeqNo(packetReceived)
attr title "received packet sequence number"
vector 212 WSN_EnergyEfficient.sensorNode4.energyStorage powerConsumption:vector ETV
attr interpolationmode sample-hold
attr recordingmode vector
attr source powerConsumptionChanged
attr title "Power consumption"
attr unit W
vector 213 WSN_EnergyEfficient.sensorNode4.energyStorage powerGeneration:vector ETV
attr interpolationmode sample-hold
attr recordingmode vector
attr source powerGenerationChanged
attr title "Power generation"
attr unit W
vector 214 WSN_EnergyEfficient.sensorNode4.energyStorage residualEnergyCapacity:vector ETV
attr interpolationmode linear
attr recordingmode vector
attr source residualEnergyCapacityChanged
attr title "Residual energy capacity"
attr unit J
vector 215 WSN_EnergyEfficient.sensorNode4.energyGenerator powerGeneration:vector ETV
attr interpolationmode sample-hold
attr recordingmode vector
attr source powerGenerationChanged
attr title "Power generation"
attr unit W
vector 216 WSN_EnergyEfficient.sensorNode4.lo[0].lo rcvdPkFromHl:vector(packetBytes) ETV
attr interpolationmode none
attr recordingmode vector(packetBytes)
attr source packetReceivedFromUpper
attr title "packets received from higher layer, packetBytes"
vector 217 WSN_EnergyEfficient.sensorNode4.lo[0].lo passedUpPk:vector(packetBytes) ETV
attr interpolationmode none
attr recordingmode vector(packetBytes)
attr source packetSentToUpper
attr title "packets passed to higher layer, packetBytes"
vector 218 WSN_EnergyEfficient.sensorNode4.lo[0] packetDropInterfaceDown:vector(packetBytes) ETV
attr interpolationmode none
attr recordingmode vector(packetBytes)
attr source packetDropReasonIsInterfaceDown(packetDropped)
attr title "packet drops: interface down, packetBytes"
vector 219 WSN_EnergyEfficient.sensorNode4.lo[0] packetDropNoCarrier:vector(packetBytes) ETV
attr interpolationmode none
attr recordingmode vector(packetBytes)
attr source packetDropReasonIsNoCarrier(packetDropped)
attr title "packet drops: no carrier, packetBytes"
vector 220 WSN_EnergyEfficient.sensorNode4.wlan[0].queue queueLength:vector ETV
attr autoWarmupFilter false
attr interpolationmode sample-hold
attr recordingmode vector
attr source "warmup(atomic(constant0(packetPushEnded) + count(packetPushStarted) - count(packetPulled) - count(packetRemoved) - count(packetDropped)))"
attr title "queue length"
attr unit pk
vector 221 WSN_EnergyEfficient.sensorNode4.wlan[0].queue queueBitLength:vector ETV
attr autoWarmupFilter false
attr interpolationmode sample-hold
attr recordingmode vector
attr source "warmup(atomic(constant0(packetPushEnded) + sum(packetLength(packetPushStarted)) - sum(packetLength(packetPulled)) - sum(packetLength(packetRemoved)) - sum(packetLength(packetDropped))))"
attr title "queue bit length"
attr unit b
vector 222 WSN_EnergyEfficient.sensorNode4.wlan[0].queue queueingTime:vector ETV
attr interpolationmode none
attr recordingmode vector
attr source queueingTime(packetPulled)
attr title "queueing times"
attr unit s
vector 223 WSN_EnergyEfficient.sensorNode4.wlan[0].queue incomingPacketLengths:vector ETV
attr interpolationmode none
attr recordingmode vector
attr source packetLength(packetPushStarted)
attr title "incoming packet lengths"
attr unit b
vector 224 WSN_EnergyEfficient.sensorNode4.wlan[0].queue incomingDataRate:vector ETV
attr interpolationmode linear
attr recordingmode vector
attr source throughput(packetPushStarted)
attr title "incoming datarate"
attr unit bps
vector 225 WSN_EnergyEfficient.sensorNode4.wlan[0].queue outgoingPacketLengths:vector ETV
attr interpolationmode none
attr recordingmode vector
attr source packetLength(packetPulled)
attr title "outgoing packet lengths"
attr unit b
vector 226 WSN_EnergyEfficient.sensorNode4.wlan[0].queue outgoingDataRate:vector ETV
attr interpolationmode linear
attr recordingmode vector
attr source throughput(packetPulled)
attr title "outgoing datarate"
attr unit bps
vector 227 WSN_EnergyEfficient.sensorNode4.wlan[0].queue droppedPacketLengthsQueueOverflow:vector ETV
attr interpolationmode none
attr recordingmode vector
attr source packetLength(packetDropReasonIsQueueOverflow(packetDropped))
attr title "dropped packet lengths: queue overflow"
attr unit b
vector 228 WSN_EnergyEfficient.sensorNode4.wlan[0].queue flowQueueingTime:vector ETV
attr interpolationmode none
attr recordingmode vector
attr source queueingTime(demuxFlow(packetPulled))
attr title "flow queueing times"
attr unit s
vector 229 WSN_EnergyEfficient.sensorNode4.wlan[0].queue flowIncomingDataRate:vector ETV
attr interpolationmode linear
attr recordingmode vector
attr source throughput(flowPacketLength(demuxFlow(packetPushStarted)))
attr title "flow specific incoming data rate"
attr unit bps
vector 230 WSN_EnergyEfficient.sensorNode4.wlan[0].queue flowOutgoingDataRate:vector ETV
attr interpolationmode linear
attr recordingmode vector
attr source throughput(flowPacketLength(demuxFlow(packetPulled)))
attr title "flow specific outgoing data rate"
attr unit bps
vector 231 WSN_EnergyEfficient.sensorNode4.wlan[0].mac packetDropNotAddressToUs:vector(packetBytes) ETV
attr interpolationmode none
attr recordingmode vector(packetBytes)
attr source packetDropReasonIsNotAddressedToUs(packetDropped)
attr title "packet drop: not addressed to us, packetBytes"
vector 232 WSN_EnergyEfficient.sensorNode4.wlan[0].mac packetDropIncorrectlyReceived:vector(packetBytes) ETV
attr interpolationmode none
attr recordingmode vector(packetBytes)
attr source packetDropReasonIsIncorrectlyReceived(packetDropped)
attr title "packet drop: incorrectly received, packetBytes"
vector 233 WSN_EnergyEfficient.sensorNode4.wlan[0].mac packetDropQueueOverflow:vector(packetBytes) ETV
attr interpolationmode none
attr recordingmode vector(packetBytes)
attr source packetDropReasonIsQueueOverflow(packetDropped)
attr title "packet drop: queue overflow, packetBytes"
vector 234 WSN_EnergyEfficient.sensorNode4.wlan[0].mac packetDropRetryLimitReached:vector(packetBytes) ETV
attr interpolationmode none
attr recordingmode vector(packetBytes)
attr source packetDropReasonIsRetryLimitReached(packetDropped)
attr title "packet drop: retry limit reached, packetBytes"
vector 235 WSN_EnergyEfficient.sensorNode4.wlan[0].mac packetDropBackoffLimitReached:vector(packetBytes) ETV
attr interpolationmode none
attr recordingmode vector(packetBytes)
attr source packetDropReasonIsCongestion(packetDropped)
attr title "packet drop: backoff limit reached, packetBytes"
vector 236 WSN_EnergyEfficient.sensorNode4.wlan[0].radio.energyConsumer powerConsumption:vector ETV
attr interpolationmode sample-hold
attr recordingmode vector
attr source powerConsumptionChanged
attr title "Power consumption"
attr unit W
vector 237 WSN_EnergyEfficient.sensorNode4.wlan[0].radio radioMode:vector ETV
attr interpolationmode sample-hold
attr recordingmode vector
attr source radioModeChanged
attr title "Radio mode"
vector 238 WSN_EnergyEfficient.sensorNode4.wlan[0].radio receptionState:vector ETV
attr interpolationmode sample-hold
attr recordingmode vector
attr source receptionStateChanged
attr title "Radio reception state"
vector 239 WSN_EnergyEfficient.sensorNode4.wlan[0].radio transmissionState:vector ETV
attr interpolationmode sample-hold
attr recordingmode vector
attr source transmissionStateChanged
attr title "Radio transmission state"
vector 240 WSN_EnergyEfficient.sensorNode4.wlan[0] packetDropInterfaceDown:vector(packetBytes) ETV
attr interpolationmode none
attr recordingmode vector(packetBytes)
attr source packetDropReasonIsInterfaceDown(packetDropped)
attr title "packet drops: interface down, packetBytes"
vector 241 WSN_EnergyEfficient.sensorNode4.wlan[0] packetDropNoCarrier:vector(packetBytes) ETV
attr interpolationmode none
attr recordingmode vector(packetBytes)
attr source packetDropReasonIsNoCarrier(packetDropped)
attr title "packet drops: no carrier, packetBytes"
vector 242 WSN_EnergyEfficient.sensorNode4.ipv4.ip packetDropAddressResolutionFailed:vector(packetBytes) ETV
attr interpolationmode none
attr recordingmode vector(packetBytes)
attr source packetDropReasonIsAddressResolutionFailed(packetDropped)
attr title "packet drop: address resolution failed, packetBytes"
vector 243 WSN_EnergyEfficient.sensorNode4.ipv4.ip packetDropHopLimitReached:vector(packetBytes) ETV
attr interpolationmode none
attr recordingmode vector(packetBytes)
attr source packetDropReasonIsHopLimitReached(packetDropped)
attr title "packet drop: hop limit reached, packetBytes"
vector 244 WSN_EnergyEfficient.sensorNode4.ipv4.ip packetDropForwardingDisabled:vector(packetBytes) ETV
attr interpolationmode none
attr recordingmode vector(packetBytes)
attr source packetDropReasonIsForwardingDisabled(packetDropped)
attr title "packet drop: forwarding disabled, packetBytes"
vector 245 WSN_EnergyEfficient.sensorNode4.ipv4.ip packetDropNoInterfaceFound:vector(packetBytes) ETV
attr interpolationmode none
attr recordingmode vector(packetBytes)
attr source packetDropReasonIsNoInterfaceFound(packetDropped)
attr title "packet drop: no interface found, packetBytes"
vector 246 WSN_EnergyEfficient.sensorNode4.ipv4.ip packetDropNoRouteFound:vector(packetBytes) ETV
attr interpolationmode none
attr recordingmode vector(packetBytes)
attr source packetDropReasonIsNoRouteFound(packetDropped)
attr title "packet drop: no route found, packetBytes"
vector 247 WSN_EnergyEfficient.sensorNode4.ipv4.ip packetDropUndefined:vector(packetBytes) ETV
attr interpolationmode none
attr recordingmode vector(packetBytes)
attr source packetDropReasonIsUndefined(packetDropped)
attr title "packet drop: undefined, packetBytes"
vector 248 WSN_EnergyEfficient.sensorNode4.ipv4.arp arpRequestSent:vector(packetBytes) ETV
attr recordingmode vector(packetBytes)
attr source arpRequestSent
attr title "ARP request sent, packetBytes"
vector 249 WSN_EnergyEfficient.sensorNode4.ipv4.arp arpReplySent:vector(packetBytes) ETV
attr recordingmode vector(packetBytes)
attr source arpReplySent
attr title "ARP replies sent, packetBytes"
vector 250 WSN_EnergyEfficient.sensorNode4.udp packetSent:vector(packetBytes) ETV
attr interpolationmode none
attr recordingmode vector(packetBytes)
attr source packetSent
attr title "packets sent, packetBytes"
vector 251 WSN_EnergyEfficient.sensorNode4.udp packetReceived:vector(packetBytes) ETV
attr interpolationmode none
attr recordingmode vector(packetBytes)
attr source packetReceived
attr title "packets received, packetBytes"
vector 252 WSN_EnergyEfficient.sensorNode4.udp passedUpPk:vector(count) ETV
attr interpolationmode none
attr recordingmode vector(count)
attr source packetSentToUpper
attr title "packets passed up, count"
vector 253 WSN_EnergyEfficient.sensorNode4.udp droppedPkWrongPort:vector(count) ETV
attr interpolationmode none
attr recordingmode vector(count)
attr source packetDropReasonIsNoPortFound(packetDropped)
attr title "packets dropped (wrong port), count"
vector 254 WSN_EnergyEfficient.sensorNode4.udp droppedPkBadChecksum:vector(count) ETV
attr interpolationmode none
attr recordingmode vector(count)
attr source packetDropReasonIsIncorrectlyReceived(packetDropped)
attr title "packets dropped (checksum error), count"
vector 255 WSN_EnergyEfficient.sensorNode4.app[0] rtt:vector ETV
attr interpolationmode none
attr recordingmode vector
attr title "ping round-trip time"
attr unit s
vector 256 WSN_EnergyEfficient.sensorNode4.app[0] numLost:vector ETV
attr interpolationmode none
attr recordingmode vector
attr title "pings lost"
vector 257 WSN_EnergyEfficient.sensorNode4.app[0] numOutOfOrderArrivals:vector ETV
attr interpolationmode none
attr recordingmode vector
attr title "ping out-of-order arrivals"
vector 258 WSN_EnergyEfficient.sensorNode4.app[0] pingTxSeq:vector ETV
attr interpolationmode none
attr recordingmode vector
attr title "ping tx seq"
vector 259 WSN_EnergyEfficient.sensorNode4.app[0] pingRxSeq:vector ETV
attr interpolationmode none
attr recordingmode vector
attr title "ping rx seq"
vector 260 WSN_EnergyEfficient.sensorNode4.app[1] packetReceived:vector(packetBytes) ETV
attr interpolationmode none
attr recordingmode vector(packetBytes)
attr source packetReceived
attr title "packets received, packetBytes"
vector 261 WSN_EnergyEfficient.sensorNode4.app[1] throughput:vector ETV
attr recordingmode vector
attr source throughput(packetReceived)
attr title throughput
attr unit bps
vector 262 WSN_EnergyEfficient.sensorNode4.app[1] packetSent:vector(packetBytes) ETV
attr interpolationmode none
attr recordingmode vector(packetBytes)
attr source packetSent
attr title "packets sent, packetBytes"
vector 263 WSN_EnergyEfficient.sensorNode4.app[1] rcvdPkLifetime:vector ETV
attr interpolationmode none
attr recordingmode vector
attr source dataAge(packetReceived)
attr title "received packet lifetime"
attr unit s
vector 264 WSN_EnergyEfficient.sensorNode4.app[1] rcvdPkSeqNo:vector ETV
attr interpolationmode none
attr recordingmode vector
attr source appPkSeqNo(packetReceived)
attr title "received packet sequence number"
vector 265 WSN_EnergyEfficient.sensorNode5.energyStorage powerConsumption:vector ETV
attr interpolationmode sample-hold
attr recordingmode vector
attr source powerConsumptionChanged
attr title "Power consumption"
attr unit W
vector 266 WSN_EnergyEfficient.sensorNode5.energyStorage powerGeneration:vector ETV
attr interpolationmode sample-hold
attr recordingmode vector
attr source powerGenerationChanged
attr title "Power generation"
attr unit W
vector 267 WSN_EnergyEfficient.sensorNode5.energyStorage residualEnergyCapacity:vector ETV
attr interpolationmode linear
attr recordingmode vector
attr source residualEnergyCapacityChanged
attr title "Residual energy capacity"
attr unit J
vector 268 WSN_EnergyEfficient.sensorNode5.energyGenerator powerGeneration:vector ETV
attr interpolationmode sample-hold
attr recordingmode vector
attr source powerGenerationChanged
attr title "Power generation"
attr unit W
vector 269 WSN_EnergyEfficient.sensorNode5.lo[0].lo rcvdPkFromHl:vector(packetBytes) ETV
attr interpolationmode none
attr recordingmode vector(packetBytes)
attr source packetReceivedFromUpper
attr title "packets received from higher layer, packetBytes"
vector 270 WSN_EnergyEfficient.sensorNode5.lo[0].lo passedUpPk:vector(packetBytes) ETV
attr interpolationmode none
attr recordingmode vector(packetBytes)
attr source packetSentToUpper
attr title "packets passed to higher layer, packetBytes"
vector 271 WSN_EnergyEfficient.sensorNode5.lo[0] packetDropInterfaceDown:vector(packetBytes) ETV
attr interpolationmode none
attr recordingmode vector(packetBytes)
attr source packetDropReasonIsInterfaceDown(packetDropped)
attr title "packet drops: interface down, packetBytes"
vector 272 WSN_EnergyEfficient.sensorNode5.lo[0] packetDropNoCarrier:vector(packetBytes) ETV
attr interpolationmode none
attr recordingmode vector(packetBytes)
attr source packetDropReasonIsNoCarrier(packetDropped)
attr title "packet drops: no carrier, packetBytes"
vector 273 WSN_EnergyEfficient.sensorNode5.wlan[0].queue queueLength:vector ETV
attr autoWarmupFilter false
attr interpolationmode sample-hold
attr recordingmode vector
attr source "warmup(atomic(constant0(packetPushEnded) + count(packetPushStarted) - count(packetPulled) - count(packetRemoved) - count(packetDropped)))"
attr title "queue length"
attr unit pk
vector 274 WSN_EnergyEfficient.sensorNode5.wlan[0].queue queueBitLength:vector ETV
attr autoWarmupFilter false
attr interpolationmode sample-hold
attr recordingmode vector
attr source "warmup(atomic(constant0(packetPushEnded) + sum(packetLength(packetPushStarted)) - sum(packetLength(packetPulled)) - sum(packetLength(packetRemoved)) - sum(packetLength(packetDropped))))"
attr title "queue bit length"
attr unit b
vector 275 WSN_EnergyEfficient.sensorNode5.wlan[0].queue queueingTime:vector ETV
attr interpolationmode none
attr recordingmode vector
attr source queueingTime(packetPulled)
attr title "queueing times"
attr unit s
vector 276 WSN_EnergyEfficient.sensorNode5.wlan[0].queue incomingPacketLengths:vector ETV
attr interpolationmode none
attr recordingmode vector
attr source packetLength(packetPushStarted)
attr title "incoming packet lengths"
attr unit b
vector 277 WSN_EnergyEfficient.sensorNode5.wlan[0].queue incomingDataRate:vector ETV
attr interpolationmode linear
attr recordingmode vector
attr source throughput(packetPushStarted)
attr title "incoming datarate"
attr unit bps
vector 278 WSN_EnergyEfficient.sensorNode5.wlan[0].queue outgoingPacketLengths:vector ETV
attr interpolationmode none
attr recordingmode vector
attr source packetLength(packetPulled)
attr title "outgoing packet lengths"
attr unit b
vector 279 WSN_EnergyEfficient.sensorNode5.wlan[0].queue outgoingDataRate:vector ETV
attr interpolationmode linear
attr recordingmode vector
attr source throughput(packetPulled)
attr title "outgoing datarate"
attr unit bps
vector 280 WSN_EnergyEfficient.sensorNode5.wlan[0].queue droppedPacketLengthsQueueOverflow:vector ETV
attr interpolationmode none
attr recordingmode vector
attr source packetLength(packetDropReasonIsQueueOverflow(packetDropped))
attr title "dropped packet lengths: queue overflow"
attr unit b
vector 281 WSN_EnergyEfficient.sensorNode5.wlan[0].queue flowQueueingTime:vector ETV
attr interpolationmode none
attr recordingmode vector
attr source queueingTime(demuxFlow(packetPulled))
attr title "flow queueing times"
attr unit s
vector 282 WSN_EnergyEfficient.sensorNode5.wlan[0].queue flowIncomingDataRate:vector ETV
attr interpolationmode linear
attr recordingmode vector
attr source throughput(flowPacketLength(demuxFlow(packetPushStarted)))
attr title "flow specific incoming data rate"
attr unit bps
vector 283 WSN_EnergyEfficient.sensorNode5.wlan[0].queue flowOutgoingDataRate:vector ETV
attr interpolationmode linear
attr recordingmode vector
attr source throughput(flowPacketLength(demuxFlow(packetPulled)))
attr title "flow specific outgoing data rate"
attr unit bps
vector 284 WSN_EnergyEfficient.sensorNode5.wlan[0].mac packetDropNotAddressToUs:vector(packetBytes) ETV
attr interpolationmode none
attr recordingmode vector(packetBytes)
attr source packetDropReasonIsNotAddressedToUs(packetDropped)
attr title "packet drop: not addressed to us, packetBytes"
vector 285 WSN_EnergyEfficient.sensorNode5.wlan[0].mac packetDropIncorrectlyReceived:vector(packetBytes) ETV
attr interpolationmode none
attr recordingmode vector(packetBytes)
attr source packetDropReasonIsIncorrectlyReceived(packetDropped)
attr title "packet drop: incorrectly received, packetBytes"
vector 286 WSN_EnergyEfficient.sensorNode5.wlan[0].mac packetDropQueueOverflow:vector(packetBytes) ETV
attr interpolationmode none
attr recordingmode vector(packetBytes)
attr source packetDropReasonIsQueueOverflow(packetDropped)
attr title "packet drop: queue overflow, packetBytes"
vector 287 WSN_EnergyEfficient.sensorNode5.wlan[0].mac packetDropRetryLimitReached:vector(packetBytes) ETV
attr interpolationmode none
attr recordingmode vector(packetBytes)
attr source packetDropReasonIsRetryLimitReached(packetDropped)
attr title "packet drop: retry limit reached, packetBytes"
vector 288 WSN_EnergyEfficient.sensorNode5.wlan[0].mac packetDropBackoffLimitReached:vector(packetBytes) ETV
attr interpolationmode none
attr recordingmode vector(packetBytes)
attr source packetDropReasonIsCongestion(packetDropped)
attr title "packet drop: backoff limit reached, packetBytes"
vector 289 WSN_EnergyEfficient.sensorNode5.wlan[0].radio.energyConsumer powerConsumption:vector ETV
attr interpolationmode sample-hold
attr recordingmode vector
attr source powerConsumptionChanged
attr title "Power consumption"
attr unit W
vector 290 WSN_EnergyEfficient.sensorNode5.wlan[0].radio radioMode:vector ETV
attr interpolationmode sample-hold
attr recordingmode vector
attr source radioModeChanged
attr title "Radio mode"
vector 291 WSN_EnergyEfficient.sensorNode5.wlan[0].radio receptionState:vector ETV
attr interpolationmode sample-hold
attr recordingmode vector
attr source receptionStateChanged
attr title "Radio reception state"
vector 292 WSN_EnergyEfficient.sensorNode5.wlan[0].radio transmissionState:vector ETV
attr interpolationmode sample-hold
attr recordingmode vector
attr source transmissionStateChanged
attr title "Radio transmission state"
vector 293 WSN_EnergyEfficient.sensorNode5.wlan[0] packetDropInterfaceDown:vector(packetBytes) ETV
attr interpolationmode none
attr recordingmode vector(packetBytes)
attr source packetDropReasonIsInterfaceDown(packetDropped)
attr title "packet drops: interface down, packetBytes"
vector 294 WSN_EnergyEfficient.sensorNode5.wlan[0] packetDropNoCarrier:vector(packetBytes) ETV
attr interpolationmode none
attr recordingmode vector(packetBytes)
attr source packetDropReasonIsNoCarrier(packetDropped)
attr title "packet drops: no carrier, packetBytes"
vector 295 WSN_EnergyEfficient.sensorNode5.ipv4.ip packetDropAddressResolutionFailed:vector(packetBytes) ETV
attr interpolationmode none
attr recordingmode vector(packetBytes)
attr source packetDropReasonIsAddressResolutionFailed(packetDropped)
attr title "packet drop: address resolution failed, packetBytes"
vector 296 WSN_EnergyEfficient.sensorNode5.ipv4.ip packetDropHopLimitReached:vector(packetBytes) ETV
attr interpolationmode none
attr recordingmode vector(packetBytes)
attr source packetDropReasonIsHopLimitReached(packetDropped)
attr title "packet drop: hop limit reached, packetBytes"
vector 297 WSN_EnergyEfficient.sensorNode5.ipv4.ip packetDropForwardingDisabled:vector(packetBytes) ETV
attr interpolationmode none
attr recordingmode vector(packetBytes)
attr source packetDropReasonIsForwardingDisabled(packetDropped)
attr title "packet drop: forwarding disabled, packetBytes"
vector 298 WSN_EnergyEfficient.sensorNode5.ipv4.ip packetDropNoInterfaceFound:vector(packetBytes) ETV
attr interpolationmode none
attr recordingmode vector(packetBytes)
attr source packetDropReasonIsNoInterfaceFound(packetDropped)
attr title "packet drop: no interface found, packetBytes"
vector 299 WSN_EnergyEfficient.sensorNode5.ipv4.ip packetDropNoRouteFound:vector(packetBytes) ETV
attr interpolationmode none
attr recordingmode vector(packetBytes)
attr source packetDropReasonIsNoRouteFound(packetDropped)
attr title "packet drop: no route found, packetBytes"
vector 300 WSN_EnergyEfficient.sensorNode5.ipv4.ip packetDropUndefined:vector(packetBytes) ETV
attr interpolationmode none
attr recordingmode vector(packetBytes)
attr source packetDropReasonIsUndefined(packetDropped)
attr title "packet drop: undefined, packetBytes"
vector 301 WSN_EnergyEfficient.sensorNode5.ipv4.arp arpRequestSent:vector(packetBytes) ETV
attr recordingmode vector(packetBytes)
attr source arpRequestSent
attr title "ARP request sent, packetBytes"
vector 302 WSN_EnergyEfficient.sensorNode5.ipv4.arp arpReplySent:vector(packetBytes) ETV
attr recordingmode vector(packetBytes)
attr source arpReplySent
attr title "ARP replies sent, packetBytes"
vector 303 WSN_EnergyEfficient.sensorNode5.udp packetSent:vector(packetBytes) ETV
attr interpolationmode none
attr recordingmode vector(packetBytes)
attr source packetSent
attr title "packets sent, packetBytes"
vector 304 WSN_EnergyEfficient.sensorNode5.udp packetReceived:vector(packetBytes) ETV
attr interpolationmode none
attr recordingmode vector(packetBytes)
attr source packetReceived
attr title "packets received, packetBytes"
vector 305 WSN_EnergyEfficient.sensorNode5.udp passedUpPk:vector(count) ETV
attr interpolationmode none
attr recordingmode vector(count)
attr source packetSentToUpper
attr title "packets passed up, count"
vector 306 WSN_EnergyEfficient.sensorNode5.udp droppedPkWrongPort:vector(count) ETV
attr interpolationmode none
attr recordingmode vector(count)
attr source packetDropReasonIsNoPortFound(packetDropped)
attr title "packets dropped (wrong port), count"
vector 307 WSN_EnergyEfficient.sensorNode5.udp droppedPkBadChecksum:vector(count) ETV
attr interpolationmode none
attr recordingmode vector(count)
attr source packetDropReasonIsIncorrectlyReceived(packetDropped)
[...]
199	761025 11 0 0 0 0 1 0 0 0 0
200	761036 11 0 0 0 0 1 0 0 0 0
201	761047 11 0 0 0 0 1 0 0 0 0
202	761058 532 1373 31974 4.465183643824 168.73031311427 13 0.00835297597 0.01708995194 0.14078263955 0.001600666628702
205	761590 378 1125 31867 4.450973691884 168.7203601383 13 0 12 78 650
206	761968 379 1373 31974 4.465183643824 168.73031311427 13 0 12 78 650
209	762347 388 3830 33626 9.776651116554 177.40657029524 13 32 32 416 13312
212	762735 37029 0 36505 0 191.624971671731 1168 0 0.1 7.6399999999999 0.40012
213	799764 563 0 36596 0 195.417829457342 19 0 0.003 0.03 9e-05
214	800327 42024 0 36654 0 200 1045 0.059999999999998 0.15 132.19005366 17.456225109431
215	842351 563 0 36596 0 195.417829457342 19 0 0.003 0.03 9e-05
220	842914 1343 0 34096 0 178.515262985882 49 0 2 24 26
221	844257 1390 0 34096 0 178.515262985882 49 0 1216 14080 9742336
222	845647 804 1958 34096 5.321522542622 178.515262985882 22 0.000128 0.008161114104 0.032641114104 0.00010548608741851
223	846451 688 1956 33953 5.319794542622 178.507101871778 22 224 736 12864 8263680
225	847139 688 1958 34096 5.321522542622 178.515262985882 22 224 736 12864 8263680
231	847827 5813 142 36015 1.643677664739 188.934332890081 197 5 101 8985 795581
232	853640 124 14013 14263 66.008782795905 66.025534795905 4 101 101 404 40804
236	853764 37018 0 36505 0 191.624971671731 1167 0 0.1 7.6399999999999 0.40012
237	890782 2293 0 34248 0 178.522688099986 80 0 3 189 489
238	893075 18265 0 36453 0 190.665871158097 633 0 3 1151 2819
239	911340 4340 1958 34248 5.321522542622 178.522688099986 148 0 2 148 222
248	915680 90 1955 33871 5.319794542622 178.501468757674 3 28 28 84 2352
250	915770 211 4086 33873 10.680445637554 178.501468757674 7 40 40 280 11200
252	915981 11 0 0 0 0 1 0 0 0 0
253	915992 11 0 0 0 0 1 0 0 0 0
254	916003 11 0 0 0 0 1 0 0 0 0
255	916014 510 2207 34214 5.33560477083 178.522144099986 12 0.008673114104 0.020675342312 0.138993825664 0.0018106413750016
258	916524 354 1953 33868 5.319794542622 178.501468757674 12 0 10 55 385
259	916878 355 2207 34214 5.33560477083 178.522144099986 12 0 10 55 385
262	917233 211 4084 33869 10.680445637554 178.501468757674 7 32 32 224 7168
265	917444 36980 0 36092 0 189.114885565589 1168 0 0.1 7.1699999999999 0.33232
266	954424 508 0 34570 0 179.733900544352 17 0 0.003 0.027 8.1e-05
267	954932 42985 0 36654 0 200 1049 0.10856951861359 0.15 138.68464396925 18.468261757494
268	997917 508 0 34570 0 179.733900544352 17 0 0.003 0.027 8.1e-05
273	998425 1085 0 34758 0 180.131761917125 41 0 1 18 18
274	999510 1121 0 34758 0 180.131761917125 41 0 736 10688 6899712
275	1000631 641 69 34758 1.639772528398 180.131761917125 18 0.000448 0.002048 0.024832 3.8889472e-05
276	1001272 551 67 34756 1.639324528398 180.130353917125 18 224 736 10688 6899712
278	1001823 551 69 34758 1.639772528398 180.131761917125 18 224 736 10688 6899712
284	1002374 6680 892 36052 4.322047158492 188.934877327676 224 5 101 9952 884448
285	1009054 124 14011 14261 66.008782529915 66.025534529915 4 101 101 404 40804
289	1009178 36969 0 36092 0 189.114885565589 1167 0 0.1 7.1699999999999 0.33232
290	1046147 1755 0 34776 0 180.134353917125 63 0 3 152 394
291	1047902 19165 0 36051 0 188.934877327676 662 0 3 1234 3036
292	1067067 3444 69 34776 1.639772528398 180.134353917125 120 0 2 120 180
301	1070511 57 66 23431 1.639324528398 123.809201175898 2 28 28 56 1568
303	1070568 179 2773 34754 8.373961616307 180.130353917125 6 40 40 240 9600
305	1070747 11 0 0 0 0 1 0 0 0 0
306	1070758 11 0 0 0 0 1 0 0 0 0
307	1070769 11 0 0 0 0 1 0 0 0 0
308	1070780 420 321 34643 1.654494845554 179.738147315201 10 0.008993158578 0.018050317156 0.115085902936 0.0014032031479058
311	1071200 286 64 34523 1.639324528398 179.728514156623 10 0 9 45 285
312	1071486 290 321 34643 1.654494845554 179.738147315201 10 0 9 45 285
315	1071776 179 2771 34753 8.373961616307 180.130353917125 6 32 32 192 6144
318	1071955 30235 0 36039 0 188.934525721151 957 0 0.1 5.9639999999999 0.286008
319	1102190 359 0 36478 0 191.082831252011 12 0 0.003 0.018 5.4e-05
320	1102549 33928 0 36654 0 200 871 0.12483575849002 0.15 125.66670635175 18.176058957102
321	1136477 359 0 36478 0 191.082831252011 12 0 0.003 0.018 5.4e-05
326	1136836 861 0 32592 0 173.313783026413 33 0 1 14 14
327	1137697 889 0 32592 0 173.313783026413 33 0 736 8256 5355520
328	1138586 501 821 32592 4.316541836261 173.313783026413 14 0.000448 0.002368 0.02144 3.8045696e-05
329	1139087 431 819 32590 4.314173836261 173.312375026413 14 224 736 8256 5355520
331	1139518 431 821 32592 4.316541836261 173.313783026413 14 224 736 8256 5355520
337	1139949 6442 148 36019 1.643677850629 188.934333075971 216 5 101 9464 844952
340	1146391 30 14301 14301 66.02609410077 66.02609410077 1 101 101 101 10201
342	1146421 30224 0 36039 0 188.934525721151 956 0 0.1 5.9639999999999 0.286008
343	1176645 1523 0 32732 0 173.322552512297 55 0 3 132 342
344	1178168 15474 0 36018 0 188.934333075971 535 0 3 991 2437
345	1193642 2980 821 32732 4.316541836261 173.322552512297 104 0 2 104 156
354	1196622 58 818 24188 4.314173836261 127.761195092315 2 28 28 56 1568
356	1196680 122 4709 28218 13.326198428404 145.160761780231 4 40 40 160 6400
358	1196802 11 0 0 0 0 1 0 0 0 0
359	1196813 11 0 0 0 0 1 0 0 0 0
360	1196824 11 0 0 0 0 1 0 0 0 0
361	1196835 293 1067 32702 4.333824808029 173.322008512297 7 0.008993485884 0.019650971768 0.084909372956 0.0011360134768559
362	1197128 29 14785 14785 68.127455068747 68.127455068747 1 1 1 1 1
364	1197157 229 816 32588 4.314173836261 173.312375026413 8 0 7 28 140
365	1197386 202 1067 32702 4.333824808029 173.322008512297 7 0 7 25 131
368	1197588 122 4707 28217 13.326198428404 145.160761780231 4 32 32 128 4096
371	1197710 41721 0 36048 0 188.93487682986 1317 0 0.1 7.6939999999998 0.336428
372	1239431 325 0 28367 0 146.275327634391 11 0 0.003 0.018 5.4e-05
373	1239756 48211 0 36654 0 200 1194 0.06048836233069 0.15 141.24818001695 17.685857834823
374	1287967 325 0 28367 0 146.275327634391 11 0 0.003 0.018 5.4e-05
379	1288292 1039 0 35900 0 188.924507836198 39 0 1 17 17
380	1289331 1073 0 35900 0 188.924507836198 39 0 736 9952 6358016
381	1290404 611 2987 35900 8.83119730731 188.924507836198 17 0.000128 0.002368 0.021824 3.6988928e-05
382	1291015 526 2985 35898 8.83010930731 188.922139836198 17 224 736 9952 6358016
384	1291541 526 2987 35900 8.83119730731 188.924507836198 17 224 736 9952 6358016
390	1292067 6089 138 34822 1.643677604518 180.134898993245 205 5 101 8993 804677
393	1298156 31 14302 14302 66.026211970698 66.026211970698 1 101 101 101 10201
395	1298187 41710 0 36048 0 188.93487682986 1316 0 0.1 7.6939999999998 0.336428
396	1339897 1769 0 36048 0 188.93487682986 63 0 3 152 394
397	1341666 21304 0 36048 0 188.93487682986 737 0 3 1383 3411
398	1362970 3472 2987 36048 8.83119730731 188.93487682986 120 0 2 120 180
407	1366442 58 2984 25701 8.83010930731 132.576983604874 2 28 28 56 1568
409	1366500 182 4855 29347 13.700872510672 152.801475983193 6 40 40 240 9600
411	1366682 11 0 0 0 0 1 0 0 0 0
412	1366693 11 0 0 0 0 1 0 0 0 0
413	1366704 11 0 0 0 0 1 0 0 0 0
414	1366715 336 3241 36010 8.845279294634 188.93433282986 8 0.008672993662 0.015169987324 0.088680942958 0.0010102420865852
415	1367051 29 14478 14478 66.348030852792 66.348030852792 1 1 1 1 1
417	1367080 259 2982 35896 8.83010930731 188.922139836198 9 0 8 36 204
418	1367339 232 3241 36010 8.845279294634 188.93433282986 8 0 8 34 200
421	1367571 182 4853 29346 13.700872510672 152.801475983193 6 32 32 192 6144
424	1367753 23098 0 36093 0 189.114885625471 739 0 0.1 5.3259999999999 0.371372
425	1390851 358 0 36563 0 193.492162745758 12 0 0.003 0.018 5.4e-05
426	1391209 24060 0 36654 0 200 645 0.10138103456699 0.15 87.467680080791 12.012061999411
427	1415269 358 0 36563 0 193.492162745758 12 0 0.003 0.018 5.4e-05
432	1415627 2127 0 32972 0 175.265088728946 77 0 1 36 36
433	1417754 2199 0 32972 0 175.265088728946 77 0 224 8064 1806336
434	1419953 1288 2670 32972 8.210564772495 175.265088728946 36 0.000128 0.002368 0.041728 6.3135744e-05
435	1421241 1108 2668 32970 8.208196772495 175.264320728946 36 224 224 8064 1806336
437	1422349 1108 2670 32972 8.210564772495 175.265088728946 36 224 224 8064 1806336
443	1423457 843 3110 36056 8.836286932898 188.934877461786 28 5 101 1676 151228
448	1424300 23087 0 36093 0 189.114885625471 738 0 0.1 5.3259999999999 0.371372
449	1447387 2105 0 32990 0 175.266656728946 75 0 3 182 472
450	1449492 7823 0 36055 0 188.934877461786 271 0 3 433 1027
451	1457315 4144 2670 32990 8.210564772495 175.266656728946 144 0 2 144 216
454	1461459 417 4246 33211 11.208196772495 176.264320728946 14 60 92 1128 94176
460	1461876 1072 2667 32969 8.208196772495 175.264320728946 36 28 28 1008 28224
462	1462948 146 3665 30636 9.614793627989 162.628750971556 5 40 40 200 8000
464	1463094 11 0 0 0 0 1 0 0 0 0
465	1463105 11 0 0 0 0 1 0 0 0 0
466	1463116 11 0 0 0 0 1 0 0 0 0
470	1463127 260 2665 32541 8.208196772495 173.264320728946 9 0 8 36 204
474	1463387 146 3663 30635 9.614793627989 162.628750971556 5 32 32 160 5120
477	1463533 22328 0 35541 0 185.30264269506 715 0 0.1 5.2499999999999 0.37082
478	1485861 354 0 29298 0 152.496617668959 12 0 0.003 0.018 5.4e-05
479	1486215 23598 0 36654 0 200 623 0.059999999999998 0.15 79.839765401403 10.629472633181
480	1509813 354 0 29298 0 152.496617668959 12 0 0.003 0.018 5.4e-05
485	1510167 2139 0 35289 0 184.137158122659 77 0 1 36 36
486	1512306 2211 0 35289 0 184.137158122659 77 0 224 8064 1806336
487	1514517 1294 392 35289 2.066517813835 184.137158122659 36 0.000128 0.002368 0.034368 5.1728384e-05
488	1515811 1114 390 35287 2.064469813835 184.137030122659 36 224 224 8064 1806336
490	1516925 1114 392 35289 2.066517813835 184.137158122659 36 224 224 8064 1806336
496	1518039 1611 182 34780 1.644222172389 180.134354402538 54 5 101 3054 271878
501	1519650 22317 0 35541 0 185.30264269506 714 0 0.1 5.2499999999999 0.37082
502	1541967 2146 0 35541 0 185.30264269506 76 0 3 182 472
503	1544113 7534 0 35541 0 185.30264269506 262 0 3 413 977
504	1551647 4168 392 35308 2.066517813835 184.138726122659 144 0 2 144 216
507	1555815 423 1948 35482 5.064469813835 185.137030122659 14 60 92 1064 84448
513	1556238 1078 389 35286 2.064469813835 184.137030122659 36 28 28 1008 28224
515	1557316 211 4408 33015 12.206326515879 175.363162079805 7 40 40 280 11200
517	1557527 11 0 0 0 0 1 0 0 0 0
518	1557538 11 0 0 0 0 1 0 0 0 0
519	1557549 11 0 0 0 0 1 0 0 0 0
523	1557560 202 387 34970 2.064469813835 182.137030122659 7 0 6 21 91
527	1557762 211 4406 33014 12.206326515879 175.363162079805 7 32 32 224 7168
530	1557973 25777 0 36605 0 195.992945595645 823 0 0.1 5.5579999999999 0.346036
531	1583750 165 0 28734 0 149.550097595649 6 0 0.003 0.009 2.7e-05
532	1583915 27282 0 36654 0 200 732 0.055999999999998 0.15 100.06317592887 14.063052698981
533	1611197 165 0 28734 0 149.550097595649 6 0 0.003 0.009 2.7e-05
538	1611362 1963 0 35556 0 186.109283890444 71 0 1 33 33
539	1613325 2029 0 35556 0 186.109283890444 71 0 224 7392 1655808
540	1615354 1185 2383 35556 5.838087054083 186.109283890444 33 0.000128 0.002368 0.043584 7.5436032e-05
541	1616539 1020 2381 35554 5.836359054083 186.106915890444 33 224 224 7392 1655808
543	1617559 1020 2383 35556 5.838087054083 186.109283890444 33 224 224 7392 1655808
549	1618579 840 3114 36060 8.83628709237 188.934877621258 28 5 101 1676 151228
554	1619419 25766 0 36605 0 195.992945595645 822 0 0.1 5.5579999999999 0.346036
555	1645185 1971 0 36605 0 195.992945595645 70 0 3 167 433
556	1647156 10231 0 36605 0 195.992945595645 356 0 3 610 1474
557	1657387 3816 2383 35574 5.838087054083 186.110851890444 132 0 2 132 198
560	1661203 358 3124 35659 8.836359054083 187.106915890444 12 60 92 944 77248
566	1661561 987 2380 35553 5.836359054083 186.106915890444 33 28 28 924 25872
568	1662548 149 5068 35234 14.446689186152 184.106915890444 5 40 40 200 8000
570	1662697 11 0 0 0 0 1 0 0 0 0
571	1662708 11 0 0 0 0 1 0 0 0 0
572	1662719 11 0 0 0 0 1 0 0 0 0
576	1662730 202 2378 28681 5.836359054083 149.164507241864 7 0 6 21 91
580	1662932 149 5066 35233 14.446689186152 184.106915890444 5 32 32 160 5120
583	1663081 52669 0 36590 0 194.977091631805 1653 0 0.1 9.3709999999999 0.340047
584	1715750 539 0 33525 0 176.926674625124 18 0 0.003 0.027 8.1e-05
585	1716289 62694 0 36654 0 200 1492 0.055999999999998 0.15 163.63308295129 19.232619309187
586	1778983 539 0 33525 0 176.926674625124 18 0 0.003 0.027 8.1e-05
591	1779522 1039 0 33262 0 176.614194987586 39 0 1 17 17
592	1780561 1073 0 33262 0 176.614194987586 39 0 736 10208 6669312
593	1781634 611 1506 33262 4.733685470067 176.614194987586 17 0.000128 0.001728 0.018944 2.6093568e-05
594	1782245 526 1504 33260 4.731957470067 176.614066987586 17 224 736 10208 6669312
596	1782771 526 1506 33262 4.733685470067 176.614194987586 17 224 736 10208 6669312
602	1783297 6439 140 36058 1.643677646803 188.934877552309 216 5 101 9848 873368
607	1789736 52658 0 36590 0 194.977091631805 1652 0 0.1 9.3709999999999 0.340047
608	1842394 1741 0 36590 0 194.977091631805 62 0 3 147 381
609	1844135 30503 0 36590 0 194.977091631805 1054 0 3 1970 4760
610	1874638 3356 1506 33408 4.733685470067 176.622644065818 116 0 2 116 174
619	1877994 59 1503 25988 4.731957470067 133.013774035003 2 28 28 56 1568
621	1878053 150 3727 33064 9.736004227307 175.571268720279 5 40 40 200 8000
623	1878203 11 0 0 0 0 1 0 0 0 0
624	1878214 11 0 0 0 0 1 0 0 0 0
625	1878225 11 0 0 0 0 1 0 0 0 0
626	1878236 420 1769 33374 4.747767626531 176.622100065818 10 0.008033078232 0.015810156464 0.114764938784 0.0013734586959241
629	1878656 290 1501 33258 4.731957470067 176.614066987586 10 0 9 45 285
630	1878946 290 1769 33374 4.747767626531 176.622100065818 10 0 9 45 285
633	1879236 150 3725 33063 9.736004227307 175.571268720279 5 32 32 160 5120
636	1879386 34538 0 36508 0 191.62634629576 1094 0 0.1 7.3049999999999 0.415205
637	1913924 354 0 35719 0 187.429917745423 12 0 0.003 0.018 5.4e-05
638	1914278 38829 0 36654 0 200 982 0.10558436040099 0.15 133.0187710381 18.175813272315
639	1953107 354 0 35719 0 187.429917745423 12 0 0.003 0.018 5.4e-05
644	1953461 2323 0 36126 0 189.173528630512 83 0 1 39 39
645	1955784 2401 0 36126 0 189.173528630512 83 0 224 8736 1956864
646	1958185 1407 2554 36126 7.633031601292 189.173528630512 39 0.000128 0.004096 0.04832 8.7379968e-05
647	1959592 1212 2552 36124 7.632263601292 189.172760630512 39 224 224 8736 1956864
649	1960804 1212 2554 36126 7.633031601292 189.173528630512 39 224 224 8736 1956864
655	1962016 807 1627 33410 4.739415001909 176.622644519428 27 5 101 1415 126115
660	1962823 34527 0 36508 0 191.62634629576 1093 0 0.1 7.3049999999999 0.415205
661	1997350 2301 0 36144 0 189.175096630512 81 0 3 197 511
662	1999651 15774 0 36508 0 191.62634629576 547 0 3 971 2355
663	2015425 4536 2554 36144 7.633031601292 189.175096630512 156 0 2 156 234
666	2019961 574 4083 36372 10.632263601292 190.172760630512 19 60 92 1428 112176
672	2020535 1173 2551 36123 7.632263601292 189.172760630512 39 28 28 1092 30576
674	2021708 299 3607 33716 9.561503359582 177.603584458896 10 40 40 400 16000
676	2022007 11 0 0 0 0 1 0 0 0 0
677	2022018 11 0 0 0 0 1 0 0 0 0
678	2022029 11 0 0 0 0 1 0 0 0 0
682	2022040 263 2549 35892 7.632263601292 188.764163732374 9 0 8 36 204
686	2022303 299 3605 33715 9.561503359582 177.603584458896 10 32 32 320 10240
689	2022602 25183 0 36511 0 191.626346311588 809 0 0.1 5.8819999999999 0.403404
690	2047785 382 0 30471 0 161.176066633617 13 0 0.003 0.021 6.3e-05
691	2048167 27063 0 36654 0 200 690 0.059999999999998 0.15 87.430973903662 11.578840118205
692	2075230 382 0 30471 0 161.176066633617 13 0 0.003 0.021 6.3e-05
697	2075612 2287 0 35083 0 183.127460796774 83 0 1 39 39
698	2077899 2365 0 35083 0 183.127460796774 83 0 224 8736 1956864
699	2080264 1389 12 35083 1.170196182192 183.127460796774 39 0.000128 0.002368 0.048832 8.4463616e-05
700	2081653 1194 10 35081 1.169108182192 183.126052796774 39 224 224 8736 1956864
702	2082847 1194 12 35083 1.170196182192 183.127460796774 39 224 224 8736 1956864
708	2084041 620 1641 33422 4.739415407316 176.622644924835 21 5 101 1129 100877
713	2084661 25172 0 36511 0 191.626346311588 808 0 0.1 5.8819999999999 0.403404
714	2109833 2355 0 35101 0 183.129028796774 84 0 3 199 515
715	2112188 9093 0 36511 0 191.626346311588 317 0 3 513 1221
716	2121281 4464 12 35101 1.170196182192 183.129028796774 156 0 2 156 234
719	2125745 598 813 35284 4.169108182192 184.126052796774 20 60 92 1552 125504
725	2126343 1154 9 35080 1.169108182192 183.126052796774 39 28 28 1092 30576
727	2127497 268 2718 32491 8.241410041228 173.188421476858 9 40 40 360 14400
729	2127765 11 0 0 0 0 1 0 0 0 0
730	2127776 11 0 0 0 0 1 0 0 0 0
731	2127787 11 0 0 0 0 1 0 0 0 0
735	2127798 314 7 35219 1.169108182192 183.59424222692 11 0 7 31 145
739	2128112 268 2716 32490 8.241410041228 173.188421476858 9 32 32 288 9216
742	2128380 27639 0 36514 0 191.626346436206 887 0 0.1 6.3599999999999 0.42556
743	2156019 326 0 36627 0 197.717811236217 11 0 0.003 0.018 5.4e-05
744	2156345 29117 0 36654 0 200 784 0.059999999999998 0.15 93.297166041479 12.026455524021
745	2185462 326 0 36627 0 197.717811236217 11 0 0.003 0.018 5.4e-05
750	2185788 2403 0 36329 0 190.114051784738 87 0 1 41 41
751	2188191 2485 0 36329 0 190.114051784738 87 0 224 9184 2057216
752	2190676 1461 500 36329 3.001980469659 190.114051784738 41 0.000128 0.002368 0.047808 7.8229504e-05
753	2192137 1256 498 36327 3.000892469659 190.113923784738 41 224 224 9184 2057216
755	2193393 1256 500 36329 3.001980469659 190.114051784738 41 224 224 9184 2057216
761	2194649 683 1637 30198 4.739415269199 157.762843502532 23 5 101 1171 106367
766	2195332 27628 0 36514 0 191.626346436206 886 0 0.1 6.3599999999999 0.42556
767	2222960 2471 0 36347 0 190.115619784738 88 0 3 209 541
768	2225431 10354 0 36514 0 191.626346436206 361 0 3 595 1423
769	2235785 4696 500 36347 3.001980469659 190.115619784738 164 0 2 164 246
772	2240481 447 2435 36479 6.000892469659 191.113923784738 15 60 92 1124 88048
778	2240928 1215 497 36326 3.000892469659 190.113923784738 41 28 28 1148 32144
780	2242143 269 4196 35733 11.169339986518 188.113923784738 9 40 40 360 14400
782	2242412 11 0 0 0 0 1 0 0 0 0
783	2242423 11 0 0 0 0 1 0 0 0 0
784	2242434 11 0 0 0 0 1 0 0 0 0
788	2242445 230 495 35728 3.000892469659 188.113923784738 8 0 6 21 91
792	2242675 269 4194 35729 11.169339986518 188.113923784738 9 32 32 288 9216
799	2242944 4275 0 35986 0 188.930716333029 151 0 1 73 73
800	2247219 4421 0 35986 0 188.930716333029 151 0 736 47072 33154048
801	2251640 2628 116 35986 1.642109107687 188.930716333029 73 0.000448 0.005217114104 0.120129114104 0.00024814320757416
802	2254268 2255 100 35924 1.641341107687 188.928124333029 73 224 736 47072 33154048
804	2256523 2257 116 35986 1.642109107687 188.930716333029 73 224 736 47072 33154048
811	2258780 124 14015 14265 66.008782843712 66.025534843712 4 101 101 404 40804
815	2258904 10116 0 36004 0 188.934332333029 351 0 3 872 2266
816	2269020 21229 0 36049 0 188.934877326691 734 0 3 946 2100
817	2290249 20166 116 36004 1.642109107687 188.934332333029 696 0 2 696 1044
827	2310415 381 99 33902 1.641341107687 178.504125314726 13 28 28 364 10192
829	2310796 1231 2805 34786 8.377642195596 180.134354496414 41 40 40 1640 65600
830	2312027 1233 0 34786 0 180.134354496414 42 0 41 861 23821
831	2313260 11 0 0 0 0 1 0 0 0 0
832	2313271 11 0 0 0 0 1 0 0 0 0
833	2313282 1231 2806 34787 8.377642195596 180.134354496414 41 32 32 1312 41984
835	2314513 1722 2806 34787 8.377642195596 180.134354496414 41 0.002720487985 0.01638678526 0.169465589107 0.00089566508129472
836	2316235 1193 2806 34787 8.377642195596 180.134354496414 41 0 12 145 895
841	2317428 55 0 0 0 0 5 0 0 0 0
842	2317483 55 0 0 0 0 5 0 0 0 0
852	2317538 6819 150 36054 1.64367790781 188.934877368512 229 5 101 10137 909725
857	2324357 33 0 0 0 0 3 0 2 2 4
858	2324390 24781 0 36517 0 191.62634668221 857 1 3 1713 4281
872	2349171 11 0 0 0 0 1 0 0 0 0
873	2349182 11 0 0 0 0 1 0 0 0 0
874	2349193 11 0 0 0 0 1 0 0 0 0

